'WAVEWATCH III SPECTRA'     50    36     1 'spectral resolution for points'
 0.350E-01 0.375E-01 0.401E-01 0.429E-01 0.459E-01 0.491E-01 0.525E-01 0.562E-01
 0.601E-01 0.643E-01 0.689E-01 0.737E-01 0.788E-01 0.843E-01 0.902E-01 0.966E-01
 0.103E+00 0.111E+00 0.118E+00 0.127E+00 0.135E+00 0.145E+00 0.155E+00 0.166E+00
 0.178E+00 0.190E+00 0.203E+00 0.217E+00 0.233E+00 0.249E+00 0.266E+00 0.285E+00
 0.305E+00 0.326E+00 0.349E+00 0.374E+00 0.400E+00 0.428E+00 0.458E+00 0.490E+00
 0.524E+00 0.561E+00 0.600E+00 0.642E+00 0.687E+00 0.735E+00 0.787E+00 0.842E+00
 0.901E+00 0.964E+00
  0.148E+01  0.131E+01  0.113E+01  0.960E+00  0.785E+00  0.611E+00  0.436E+00
  0.262E+00  0.873E-01  0.620E+01  0.602E+01  0.585E+01  0.567E+01  0.550E+01
  0.532E+01  0.515E+01  0.497E+01  0.480E+01  0.463E+01  0.445E+01  0.428E+01
  0.410E+01  0.393E+01  0.375E+01  0.358E+01  0.340E+01  0.323E+01  0.305E+01
  0.288E+01  0.271E+01  0.253E+01  0.236E+01  0.218E+01  0.201E+01  0.183E+01
  0.166E+01
20220912 060000
'44097     '  40.98 -71.12      46.6   1.45 225.6   0.18  94.1
  0.261E-17  0.551E-18  0.263E-16  0.289E-16  0.111E-16  0.191E-16  0.602E-17
  0.385E-17  0.681E-17  0.740E-16  0.186E-16  0.976E-16  0.835E-16  0.162E-15
  0.374E-17  0.601E-17  0.375E-16  0.619E-17  0.954E-17  0.714E-15  0.516E-14
  0.132E-13  0.254E-13  0.160E-11  0.104E-09  0.696E-08  0.172E-06  0.197E-05
  0.861E-05  0.351E-04  0.417E-03  0.165E-02  0.378E-02  0.509E-02  0.512E-02
  0.466E-02  0.354E-02  0.246E-02  0.184E-02  0.150E-02  0.121E-02  0.953E-03
  0.747E-03  0.585E-03  0.454E-03  0.347E-03  0.263E-03  0.198E-03  0.147E-03
  0.105E-03  0.361E-17  0.112E-16  0.287E-17  0.590E-17  0.320E-17  0.469E-17
  0.319E-16  0.104E-16  0.315E-16  0.248E-16  0.577E-17  0.843E-17  0.736E-17
  0.327E-16  0.274E-16  0.468E-16  0.143E-16  0.405E-16  0.222E-16  0.405E-15
  0.787E-14  0.192E-13  0.616E-13  0.145E-11  0.694E-10  0.361E-08  0.733E-07
  0.797E-06  0.513E-05  0.557E-04  0.702E-03  0.302E-02  0.669E-02  0.837E-02
  0.762E-02  0.633E-02  0.447E-02  0.282E-02  0.192E-02  0.146E-02  0.118E-02
  0.955E-03  0.766E-03  0.604E-03  0.468E-03  0.354E-03  0.266E-03  0.199E-03
  0.148E-03  0.105E-03  0.430E-17  0.458E-17  0.191E-16  0.148E-16  0.105E-16
  0.172E-16  0.234E-16  0.783E-17  0.123E-15  0.915E-16  0.699E-17  0.299E-16
  0.739E-16  0.311E-15  0.973E-16  0.264E-15  0.509E-15  0.483E-15  0.112E-14
  0.674E-14  0.325E-13  0.898E-13  0.871E-12  0.456E-11  0.391E-10  0.563E-09
  0.282E-07  0.167E-05  0.176E-04  0.135E-03  0.877E-03  0.326E-02  0.715E-02
  0.908E-02  0.820E-02  0.645E-02  0.445E-02  0.281E-02  0.188E-02  0.139E-02
  0.113E-02  0.937E-03  0.772E-03  0.615E-03  0.475E-03  0.356E-03  0.265E-03
  0.198E-03  0.148E-03  0.105E-03  0.157E-16  0.193E-16  0.216E-16  0.208E-16
  0.258E-16  0.423E-16  0.299E-15  0.609E-15  0.114E-14  0.281E-15  0.154E-14
  0.201E-14  0.652E-15  0.893E-15  0.153E-14  0.452E-15  0.440E-15  0.636E-15
  0.269E-14  0.280E-12  0.310E-11  0.176E-10  0.417E-10  0.140E-09  0.707E-09
  0.262E-08  0.723E-06  0.141E-04  0.772E-04  0.281E-03  0.957E-03  0.283E-02
  0.584E-02  0.766E-02  0.684E-02  0.493E-02  0.319E-02  0.214E-02  0.159E-02
  0.129E-02  0.108E-02  0.911E-03  0.762E-03  0.610E-03  0.469E-03  0.349E-03
  0.260E-03  0.195E-03  0.145E-03  0.104E-03  0.146E-15  0.149E-15  0.136E-15
  0.327E-15  0.243E-15  0.563E-15  0.708E-15  0.228E-14  0.304E-14  0.151E-14
  0.153E-14  0.258E-14  0.305E-12  0.219E-11  0.596E-11  0.128E-10  0.278E-10
  0.341E-10  0.835E-10  0.220E-08  0.485E-08  0.157E-07  0.371E-07  0.148E-07
  0.658E-07  0.564E-06  0.463E-05  0.336E-04  0.128E-03  0.309E-03  0.633E-03
  0.153E-02  0.327E-02  0.486E-02  0.473E-02  0.345E-02  0.225E-02  0.163E-02
  0.134E-02  0.114E-02  0.986E-03  0.853E-03  0.729E-03  0.595E-03  0.460E-03
  0.342E-03  0.253E-03  0.189E-03  0.141E-03  0.100E-03  0.332E-15  0.285E-15
  0.239E-15  0.690E-15  0.780E-15  0.128E-14  0.464E-14  0.130E-13  0.449E-14
  0.200E-13  0.964E-12  0.413E-10  0.508E-09  0.235E-08  0.557E-08  0.103E-07
  0.779E-07  0.121E-06  0.150E-06  0.316E-06  0.483E-06  0.725E-06  0.123E-05
  0.224E-05  0.467E-05  0.840E-05  0.160E-04  0.453E-04  0.128E-03  0.232E-03
  0.339E-03  0.566E-03  0.110E-02  0.193E-02  0.244E-02  0.221E-02  0.166E-02
  0.131E-02  0.113E-02  0.996E-03  0.878E-03  0.781E-03  0.676E-03  0.560E-03
  0.437E-03  0.326E-03  0.242E-03  0.180E-03  0.134E-03  0.956E-04  0.467E-14
  0.675E-13  0.255E-12  0.280E-12  0.171E-13  0.780E-14  0.502E-12  0.141E-11
  0.522E-13  0.463E-11  0.194E-09  0.446E-08  0.426E-07  0.271E-06  0.974E-06
  0.165E-05  0.185E-05  0.147E-05  0.137E-05  0.163E-05  0.229E-05  0.285E-05
  0.451E-05  0.124E-04  0.217E-04  0.290E-04  0.367E-04  0.564E-04  0.108E-03
  0.168E-03  0.194E-03  0.213E-03  0.295E-03  0.568E-03  0.995E-03  0.126E-02
  0.121E-02  0.104E-02  0.926E-03  0.853E-03  0.786E-03  0.708E-03  0.608E-03
  0.493E-03  0.384E-03  0.287E-03  0.215E-03  0.163E-03  0.122E-03  0.872E-04
  0.326E-12  0.108E-10  0.941E-10  0.265E-09  0.230E-09  0.484E-10  0.378E-10
  0.486E-09  0.554E-08  0.516E-07  0.972E-07  0.188E-06  0.608E-06  0.248E-05
  0.696E-05  0.846E-05  0.358E-05  0.198E-05  0.191E-05  0.213E-05  0.302E-05
  0.379E-05  0.638E-05  0.205E-04  0.384E-04  0.567E-04  0.636E-04  0.765E-04
  0.110E-03  0.141E-03  0.149E-03  0.143E-03  0.152E-03  0.215E-03  0.395E-03
  0.615E-03  0.749E-03  0.741E-03  0.705E-03  0.680E-03  0.644E-03  0.576E-03
  0.488E-03  0.392E-03  0.303E-03  0.226E-03  0.170E-03  0.130E-03  0.995E-04
  0.709E-04  0.200E-11  0.101E-09  0.156E-08  0.777E-08  0.194E-07  0.236E-07
  0.115E-07  0.172E-07  0.244E-07  0.124E-06  0.351E-05  0.465E-06  0.135E-05
  0.958E-05  0.164E-04  0.111E-04  0.718E-04  0.130E-02  0.203E-02  0.193E-02
  0.258E-02  0.223E-02  0.192E-02  0.198E-02  0.214E-02  0.189E-02  0.145E-02
  0.106E-02  0.755E-03  0.574E-03  0.448E-03  0.330E-03  0.241E-03  0.200E-03
  0.199E-03  0.271E-03  0.363E-03  0.424E-03  0.445E-03  0.447E-03  0.426E-03
  0.379E-03  0.322E-03  0.261E-03  0.204E-03  0.152E-03  0.116E-03  0.898E-04
  0.696E-04  0.496E-04  0.953E-09  0.423E-07  0.569E-06  0.327E-05  0.109E-04
  0.176E-04  0.142E-04  0.851E-06  0.314E-05  0.112E-03  0.115E-02  0.254E-02
  0.119E-03  0.237E-03  0.475E-03  0.247E-02  0.127E-01  0.330E-01  0.434E-01
  0.367E-01  0.291E-01  0.244E-01  0.213E-01  0.184E-01  0.151E-01  0.112E-01
  0.779E-02  0.528E-02  0.347E-02  0.237E-02  0.160E-02  0.100E-02  0.589E-03
  0.334E-03  0.204E-03  0.155E-03  0.157E-03  0.178E-03  0.195E-03  0.200E-03
  0.192E-03  0.173E-03  0.152E-03  0.128E-03  0.103E-03  0.790E-04  0.617E-04
  0.493E-04  0.394E-04  0.281E-04  0.197E-07  0.815E-06  0.125E-04  0.113E-03
  0.867E-03  0.482E-02  0.135E-01  0.154E-01  0.337E-02  0.135E-02  0.634E-02
  0.220E-01  0.804E-03  0.111E-02  0.391E-02  0.175E-01  0.563E-01  0.116E+00
  0.144E+00  0.114E+00  0.801E-01  0.672E-01  0.560E-01  0.449E-01  0.330E-01
  0.217E-01  0.137E-01  0.855E-02  0.537E-02  0.340E-02  0.213E-02  0.125E-02
  0.672E-03  0.344E-03  0.173E-03  0.931E-04  0.649E-04  0.579E-04  0.577E-04
  0.574E-04  0.539E-04  0.485E-04  0.430E-04  0.372E-04  0.312E-04  0.256E-04
  0.213E-04  0.178E-04  0.168E-04  0.120E-04  0.528E-07  0.212E-05  0.352E-04
  0.371E-03  0.348E-02  0.233E-01  0.807E-01  0.156E+00  0.162E+00  0.100E+00
  0.296E-01  0.475E-01  0.241E-02  0.226E-02  0.889E-02  0.339E-01  0.889E-01
  0.159E+00  0.183E+00  0.142E+00  0.965E-01  0.775E-01  0.618E-01  0.474E-01
  0.333E-01  0.209E-01  0.127E-01  0.768E-02  0.464E-02  0.281E-02  0.166E-02
  0.914E-03  0.462E-03  0.219E-03  0.965E-04  0.429E-04  0.222E-04  0.150E-04
  0.126E-04  0.116E-04  0.103E-04  0.852E-05  0.707E-05  0.587E-05  0.490E-05
  0.416E-05  0.364E-05  0.323E-05  0.631E-05  0.450E-05  0.557E-07  0.216E-05
  0.388E-04  0.457E-03  0.487E-02  0.364E-01  0.148E+00  0.365E+00  0.596E+00
  0.800E+00  0.671E+00  0.301E+00  0.394E-01  0.675E-02  0.149E-01  0.425E-01
  0.942E-01  0.155E+00  0.173E+00  0.134E+00  0.862E-01  0.644E-01  0.495E-01
  0.363E-01  0.246E-01  0.148E-01  0.860E-02  0.497E-02  0.284E-02  0.163E-02
  0.906E-03  0.469E-03  0.227E-03  0.104E-03  0.456E-04  0.197E-04  0.836E-05
  0.372E-05  0.230E-05  0.190E-05  0.165E-05  0.133E-05  0.100E-05  0.749E-06
  0.551E-06  0.389E-06  0.298E-06  0.255E-06  0.272E-05  0.194E-05  0.359E-07
  0.127E-05  0.261E-04  0.362E-03  0.437E-02  0.355E-01  0.153E+00  0.426E+00
  0.865E+00  0.165E+01  0.239E+01  0.167E+01  0.658E+00  0.199E+00  0.654E-01
  0.752E-01  0.128E+00  0.190E+00  0.189E+00  0.134E+00  0.831E-01  0.578E-01
  0.413E-01  0.283E-01  0.179E-01  0.104E-01  0.575E-02  0.318E-02  0.179E-02
  0.107E-02  0.677E-03  0.433E-03  0.261E-03  0.145E-03  0.722E-04  0.327E-04
  0.126E-04  0.387E-05  0.969E-06  0.277E-06  0.174E-06  0.148E-06  0.122E-06
  0.966E-07  0.724E-07  0.460E-07  0.298E-07  0.213E-07  0.120E-05  0.855E-06
  0.182E-07  0.556E-06  0.130E-04  0.213E-03  0.289E-02  0.254E-01  0.116E+00
  0.349E+00  0.812E+00  0.181E+01  0.340E+01  0.354E+01  0.218E+01  0.105E+01
  0.439E+00  0.232E+00  0.214E+00  0.228E+00  0.197E+00  0.131E+00  0.872E-01
  0.613E-01  0.427E-01  0.283E-01  0.181E-01  0.112E-01  0.692E-02  0.451E-02
  0.312E-02  0.229E-02  0.168E-02  0.117E-02  0.723E-03  0.377E-03  0.172E-03
  0.689E-04  0.228E-04  0.588E-05  0.111E-05  0.144E-06  0.161E-07  0.651E-08
  0.586E-08  0.581E-08  0.576E-08  0.379E-08  0.251E-08  0.193E-08  0.385E-06
  0.275E-06  0.106E-07  0.338E-06  0.865E-05  0.143E-03  0.191E-02  0.168E-01
  0.749E-01  0.215E+00  0.513E+00  0.125E+01  0.287E+01  0.392E+01  0.323E+01
  0.217E+01  0.122E+01  0.665E+00  0.411E+00  0.294E+00  0.202E+00  0.137E+00
  0.966E-01  0.702E-01  0.523E-01  0.366E-01  0.252E-01  0.185E-01  0.137E-01
  0.102E-01  0.758E-02  0.545E-02  0.368E-02  0.230E-02  0.126E-02  0.581E-03
  0.240E-03  0.897E-04  0.282E-04  0.690E-05  0.125E-05  0.151E-06  0.112E-07
  0.550E-09  0.671E-10  0.142E-09  0.360E-09  0.257E-09  0.184E-09  0.162E-09
  0.287E-07  0.205E-07  0.638E-08  0.233E-06  0.620E-05  0.100E-03  0.129E-02
  0.109E-01  0.474E-01  0.123E+00  0.263E+00  0.594E+00  0.146E+01  0.250E+01
  0.270E+01  0.238E+01  0.174E+01  0.111E+01  0.714E+00  0.462E+00  0.307E+00
  0.211E+00  0.144E+00  0.101E+00  0.769E-01  0.570E-01  0.407E-01  0.293E-01
  0.212E-01  0.154E-01  0.107E-01  0.699E-02  0.424E-02  0.242E-02  0.124E-02
  0.542E-03  0.211E-03  0.762E-04  0.241E-04  0.625E-05  0.124E-05  0.167E-06
  0.137E-07  0.704E-09  0.245E-10  0.150E-10  0.528E-10  0.383E-10  0.278E-10
  0.240E-10  0.251E-08  0.179E-08  0.324E-08  0.132E-06  0.358E-05  0.575E-04
  0.726E-03  0.599E-02  0.261E-01  0.654E-01  0.127E+00  0.252E+00  0.550E+00
  0.100E+01  0.130E+01  0.143E+01  0.134E+01  0.108E+01  0.785E+00  0.551E+00
  0.390E+00  0.282E+00  0.198E+00  0.137E+00  0.992E-01  0.719E-01  0.504E-01
  0.345E-01  0.230E-01  0.152E-01  0.985E-02  0.601E-02  0.339E-02  0.177E-02
  0.843E-03  0.353E-03  0.137E-03  0.515E-04  0.178E-04  0.519E-05  0.120E-05
  0.199E-06  0.208E-07  0.144E-08  0.747E-10  0.580E-11  0.824E-11  0.596E-11
  0.430E-11  0.306E-11  0.192E-11  0.137E-11  0.138E-08  0.604E-07  0.166E-05
  0.264E-04  0.329E-03  0.268E-02  0.116E-01  0.289E-01  0.550E-01  0.105E+00
  0.209E+00  0.337E+00  0.430E+00  0.520E+00  0.585E+00  0.583E+00  0.514E+00
  0.418E+00  0.328E+00  0.257E+00  0.195E+00  0.145E+00  0.106E+00  0.746E-01
  0.503E-01  0.323E-01  0.197E-01  0.119E-01  0.708E-02  0.401E-02  0.213E-02
  0.107E-02  0.503E-03  0.214E-03  0.869E-04  0.350E-04  0.132E-04  0.433E-05
  0.118E-05  0.243E-06  0.320E-07  0.305E-08  0.493E-09  0.394E-09  0.375E-09
  0.248E-09  0.161E-09  0.102E-09  0.617E-10  0.440E-10  0.498E-09  0.229E-07
  0.637E-06  0.101E-04  0.124E-03  0.101E-02  0.433E-02  0.106E-01  0.198E-01
  0.377E-01  0.760E-01  0.117E+00  0.132E+00  0.149E+00  0.173E+00  0.200E+00
  0.213E+00  0.208E+00  0.192E+00  0.166E+00  0.136E+00  0.107E+00  0.804E-01
  0.566E-01  0.371E-01  0.230E-01  0.136E-01  0.788E-02  0.454E-02  0.254E-02
  0.137E-02  0.706E-03  0.341E-03  0.147E-03  0.603E-04  0.249E-04  0.991E-05
  0.363E-05  0.116E-05  0.291E-06  0.561E-07  0.194E-07  0.185E-07  0.193E-07
  0.167E-07  0.106E-07  0.661E-08  0.404E-08  0.238E-08  0.170E-08  0.143E-09
  0.689E-08  0.192E-06  0.304E-05  0.366E-04  0.301E-03  0.131E-02  0.316E-02
  0.576E-02  0.104E-01  0.207E-01  0.323E-01  0.374E-01  0.411E-01  0.449E-01
  0.508E-01  0.579E-01  0.635E-01  0.678E-01  0.684E-01  0.633E-01  0.533E-01
  0.420E-01  0.305E-01  0.206E-01  0.129E-01  0.806E-02  0.483E-02  0.286E-02
  0.169E-02  0.967E-03  0.526E-03  0.260E-03  0.113E-03  0.463E-04  0.192E-04
  0.796E-05  0.314E-05  0.114E-05  0.424E-06  0.257E-06  0.259E-06  0.260E-06
  0.235E-06  0.185E-06  0.114E-06  0.714E-07  0.453E-07  0.283E-07  0.202E-07
  0.284E-10  0.134E-08  0.359E-07  0.568E-06  0.674E-05  0.574E-04  0.262E-03
  0.636E-03  0.115E-02  0.193E-02  0.376E-02  0.490E-02  0.649E-02  0.768E-02
  0.855E-02  0.892E-02  0.961E-02  0.106E-01  0.122E-01  0.138E-01  0.145E-01
  0.138E-01  0.120E-01  0.875E-02  0.642E-02  0.463E-02  0.320E-02  0.210E-02
  0.134E-02  0.855E-03  0.539E-03  0.322E-03  0.176E-03  0.844E-04  0.369E-04
  0.155E-04  0.667E-05  0.289E-05  0.159E-05  0.147E-05  0.171E-05  0.188E-05
  0.174E-05  0.145E-05  0.109E-05  0.729E-06  0.554E-06  0.478E-06  0.395E-06
  0.282E-06  0.233E-11  0.120E-09  0.261E-08  0.408E-07  0.563E-06  0.474E-05
  0.202E-04  0.494E-04  0.890E-04  0.795E-04  0.165E-03  0.355E-03  0.450E-03
  0.581E-03  0.690E-03  0.711E-03  0.691E-03  0.640E-03  0.704E-03  0.921E-03
  0.117E-02  0.139E-02  0.143E-02  0.107E-02  0.969E-03  0.812E-03  0.636E-03
  0.464E-03  0.329E-03  0.231E-03  0.160E-03  0.109E-03  0.703E-04  0.396E-04
  0.217E-04  0.122E-04  0.699E-05  0.485E-05  0.508E-05  0.667E-05  0.827E-05
  0.904E-05  0.840E-05  0.735E-05  0.643E-05  0.548E-05  0.507E-05  0.450E-05
  0.370E-05  0.264E-05  0.195E-13  0.764E-12  0.390E-10  0.405E-09  0.181E-08
  0.195E-07  0.110E-06  0.241E-06  0.445E-06  0.269E-05  0.385E-05  0.943E-06
  0.167E-05  0.714E-05  0.108E-04  0.104E-04  0.894E-05  0.686E-05  0.553E-05
  0.569E-05  0.676E-05  0.966E-05  0.163E-04  0.309E-04  0.409E-04  0.361E-04
  0.386E-04  0.352E-04  0.301E-04  0.243E-04  0.181E-04  0.136E-04  0.113E-04
  0.116E-04  0.139E-04  0.170E-04  0.154E-04  0.145E-04  0.191E-04  0.266E-04
  0.334E-04  0.355E-04  0.323E-04  0.296E-04  0.279E-04  0.252E-04  0.225E-04
  0.186E-04  0.146E-04  0.104E-04  0.337E-14  0.644E-14  0.903E-13  0.684E-12
  0.427E-11  0.242E-10  0.108E-09  0.397E-09  0.825E-09  0.184E-08  0.347E-08
  0.115E-07  0.178E-07  0.262E-07  0.416E-07  0.574E-07  0.642E-07  0.585E-07
  0.447E-07  0.283E-07  0.157E-07  0.807E-08  0.422E-08  0.280E-08  0.324E-08
  0.386E-07  0.648E-07  0.148E-06  0.209E-06  0.246E-06  0.359E-06  0.792E-06
  0.350E-05  0.151E-04  0.398E-04  0.568E-04  0.508E-04  0.507E-04  0.700E-04
  0.986E-04  0.117E-03  0.110E-03  0.925E-04  0.838E-04  0.761E-04  0.666E-04
  0.554E-04  0.429E-04  0.323E-04  0.230E-04  0.197E-14  0.341E-14  0.276E-13
  0.841E-13  0.143E-12  0.708E-12  0.338E-11  0.449E-10  0.190E-10  0.365E-10
  0.794E-10  0.167E-09  0.347E-09  0.729E-09  0.140E-08  0.236E-08  0.326E-08
  0.366E-08  0.330E-08  0.231E-08  0.152E-08  0.103E-08  0.640E-09  0.426E-09
  0.234E-09  0.454E-10  0.212E-10  0.279E-09  0.636E-08  0.569E-07  0.338E-06
  0.203E-05  0.126E-04  0.530E-04  0.126E-03  0.170E-03  0.159E-03  0.173E-03
  0.242E-03  0.317E-03  0.310E-03  0.234E-03  0.186E-03  0.161E-03  0.135E-03
  0.113E-03  0.903E-04  0.686E-04  0.511E-04  0.364E-04  0.114E-14  0.136E-14
  0.398E-14  0.203E-13  0.106E-12  0.475E-12  0.140E-11  0.180E-11  0.189E-11
  0.203E-11  0.188E-11  0.151E-11  0.127E-11  0.220E-11  0.457E-11  0.100E-10
  0.198E-10  0.326E-10  0.398E-10  0.370E-10  0.356E-10  0.298E-10  0.219E-10
  0.141E-10  0.777E-11  0.392E-11  0.524E-11  0.714E-09  0.126E-07  0.107E-06
  0.705E-06  0.528E-05  0.326E-04  0.125E-03  0.268E-03  0.352E-03  0.380E-03
  0.496E-03  0.687E-03  0.747E-03  0.555E-03  0.364E-03  0.286E-03  0.232E-03
  0.188E-03  0.153E-03  0.121E-03  0.920E-04  0.684E-04  0.488E-04  0.328E-15
  0.446E-15  0.786E-15  0.100E-14  0.344E-14  0.131E-13  0.568E-13  0.110E-15
  0.993E-16  0.154E-14  0.382E-15  0.531E-14  0.137E-13  0.136E-13  0.929E-14
  0.175E-13  0.117E-13  0.555E-14  0.139E-13  0.343E-13  0.608E-13  0.830E-13
  0.977E-13  0.948E-13  0.815E-13  0.627E-13  0.739E-12  0.621E-09  0.164E-07
  0.170E-06  0.138E-05  0.100E-04  0.563E-04  0.185E-03  0.368E-03  0.508E-03
  0.680E-03  0.105E-02  0.139E-02  0.120E-02  0.776E-03  0.508E-03  0.382E-03
  0.301E-03  0.240E-03  0.191E-03  0.150E-03  0.113E-03  0.828E-04  0.590E-04
  0.100E-15  0.213E-15  0.157E-15  0.116E-15  0.196E-16  0.138E-16  0.157E-15
  0.502E-17  0.485E-16  0.355E-15  0.137E-15  0.194E-15  0.160E-14  0.242E-14
  0.120E-14  0.106E-14  0.171E-14  0.463E-15  0.263E-15  0.559E-15  0.392E-15
  0.826E-15  0.120E-14  0.570E-14  0.215E-13  0.147E-12  0.614E-12  0.489E-09
  0.125E-07  0.199E-06  0.219E-05  0.156E-04  0.735E-04  0.208E-03  0.394E-03
  0.634E-03  0.108E-02  0.178E-02  0.208E-02  0.158E-02  0.101E-02  0.657E-03
  0.484E-03  0.379E-03  0.293E-03  0.225E-03  0.172E-03  0.127E-03  0.919E-04
  0.655E-04  0.137E-16  0.929E-16  0.554E-16  0.414E-16  0.314E-16  0.442E-16
  0.928E-16  0.207E-16  0.583E-16  0.695E-16  0.442E-16  0.189E-15  0.337E-15
  0.449E-15  0.469E-15  0.113E-15  0.241E-15  0.147E-15  0.626E-16  0.115E-15
  0.824E-15  0.122E-14  0.226E-14  0.832E-14  0.265E-13  0.180E-12  0.145E-11
  0.122E-10  0.591E-08  0.152E-06  0.239E-05  0.201E-04  0.898E-04  0.228E-03
  0.432E-03  0.789E-03  0.151E-02  0.248E-02  0.259E-02  0.191E-02  0.123E-02
  0.809E-03  0.591E-03  0.449E-03  0.337E-03  0.252E-03  0.187E-03  0.137E-03
  0.984E-04  0.702E-04  0.692E-17  0.272E-16  0.309E-16  0.225E-16  0.218E-16
  0.265E-16  0.472E-16  0.121E-16  0.331E-16  0.515E-16  0.340E-16  0.144E-15
  0.107E-15  0.200E-15  0.277E-15  0.115E-16  0.195E-16  0.152E-16  0.694E-16
  0.109E-15  0.131E-14  0.381E-14  0.110E-13  0.107E-13  0.724E-13  0.778E-12
  0.857E-11  0.838E-10  0.347E-08  0.104E-06  0.213E-05  0.196E-04  0.915E-04
  0.254E-03  0.539E-03  0.107E-02  0.197E-02  0.292E-02  0.288E-02  0.216E-02
  0.141E-02  0.950E-03  0.682E-03  0.503E-03  0.372E-03  0.273E-03  0.201E-03
  0.147E-03  0.106E-03  0.756E-04  0.325E-17  0.176E-16  0.142E-16  0.114E-16
  0.127E-16  0.121E-16  0.427E-16  0.122E-16  0.553E-16  0.259E-16  0.190E-16
  0.334E-16  0.299E-16  0.188E-16  0.267E-16  0.149E-15  0.124E-15  0.232E-15
  0.157E-16  0.198E-16  0.872E-14  0.715E-14  0.629E-14  0.226E-13  0.375E-12
  0.219E-10  0.494E-09  0.580E-08  0.345E-07  0.190E-06  0.204E-05  0.157E-04
  0.721E-04  0.249E-03  0.675E-03  0.148E-02  0.251E-02  0.313E-02  0.290E-02
  0.221E-02  0.150E-02  0.104E-02  0.741E-03  0.544E-03  0.402E-03  0.295E-03
  0.219E-03  0.160E-03  0.115E-03  0.822E-04  0.418E-17  0.658E-17  0.231E-16
  0.189E-16  0.116E-16  0.151E-16  0.186E-16  0.359E-17  0.901E-17  0.840E-16
  0.197E-16  0.105E-15  0.826E-16  0.102E-15  0.191E-15  0.810E-17  0.116E-16
  0.367E-17  0.303E-16  0.190E-15  0.127E-13  0.303E-14  0.764E-14  0.432E-13
  0.119E-11  0.267E-09  0.915E-08  0.123E-06  0.578E-06  0.139E-05  0.333E-05
  0.111E-04  0.421E-04  0.177E-03  0.650E-03  0.169E-02  0.278E-02  0.298E-02
  0.263E-02  0.203E-02  0.148E-02  0.106E-02  0.761E-03  0.569E-03  0.426E-03
  0.317E-03  0.235E-03  0.172E-03  0.124E-03  0.887E-04  0.234E-17  0.252E-16
  0.922E-17  0.797E-17  0.586E-17  0.572E-17  0.244E-16  0.710E-17  0.520E-16
  0.209E-16  0.918E-17  0.190E-16  0.114E-16  0.150E-16  0.240E-16  0.117E-15
  0.511E-16  0.227E-15  0.419E-16  0.112E-15  0.463E-14  0.833E-14  0.868E-14
  0.458E-13  0.397E-11  0.959E-09  0.404E-07  0.562E-06  0.323E-05  0.727E-05
  0.102E-04  0.143E-04  0.256E-04  0.101E-03  0.510E-03  0.167E-02  0.272E-02
  0.269E-02  0.226E-02  0.179E-02  0.137E-02  0.101E-02  0.747E-03  0.571E-03
  0.440E-03  0.333E-03  0.247E-03  0.181E-03  0.132E-03  0.944E-04  0.219E-17
  0.927E-18  0.302E-16  0.363E-16  0.900E-17  0.103E-16  0.984E-17  0.232E-17
  0.493E-17  0.100E-15  0.199E-16  0.120E-15  0.771E-16  0.164E-15  0.267E-15
  0.473E-17  0.362E-16  0.658E-17  0.101E-16  0.814E-15  0.418E-14  0.821E-14
  0.849E-14  0.644E-13  0.127E-10  0.206E-08  0.963E-07  0.140E-05  0.740E-05
  0.183E-04  0.290E-04  0.535E-04  0.108E-03  0.279E-03  0.815E-03  0.198E-02
  0.269E-02  0.244E-02  0.198E-02  0.159E-02  0.125E-02  0.946E-03  0.725E-03
  0.567E-03  0.445E-03  0.341E-03  0.255E-03  0.189E-03  0.139E-03  0.992E-04
  0.345E-17  0.262E-16  0.899E-18  0.638E-18  0.252E-17  0.543E-17  0.283E-16
  0.470E-17  0.442E-16  0.119E-17  0.702E-17  0.191E-16  0.203E-16  0.627E-17
  0.735E-16  0.117E-15  0.391E-16  0.224E-15  0.669E-17  0.138E-14  0.333E-14
  0.888E-14  0.119E-13  0.482E-12  0.394E-10  0.445E-08  0.165E-06  0.218E-05
  0.108E-04  0.237E-04  0.122E-03  0.411E-03  0.971E-03  0.161E-02  0.230E-02
  0.299E-02  0.292E-02  0.233E-02  0.184E-02  0.150E-02  0.119E-02  0.928E-03
  0.725E-03  0.571E-03  0.448E-03  0.344E-03  0.260E-03  0.194E-03  0.144E-03
  0.103E-03
20220912 070000
'44097     '  40.98 -71.12      46.6   1.07 168.6   0.18  94.1
  0.189E-16  0.401E-17  0.334E-16  0.258E-16  0.907E-17  0.111E-16  0.128E-16
  0.162E-17  0.168E-16  0.773E-16  0.129E-16  0.121E-15  0.506E-16  0.195E-15
  0.546E-17  0.557E-17  0.309E-16  0.137E-17  0.911E-17  0.767E-15  0.383E-14
  0.114E-13  0.166E-13  0.343E-12  0.211E-10  0.151E-08  0.643E-07  0.945E-06
  0.554E-05  0.156E-04  0.189E-03  0.950E-03  0.255E-02  0.384E-02  0.397E-02
  0.359E-02  0.277E-02  0.194E-02  0.144E-02  0.116E-02  0.924E-03  0.717E-03
  0.551E-03  0.424E-03  0.325E-03  0.248E-03  0.187E-03  0.140E-03  0.104E-03
  0.739E-04  0.390E-18  0.138E-16  0.137E-17  0.100E-17  0.393E-17  0.367E-17
  0.330E-16  0.101E-16  0.184E-16  0.253E-16  0.841E-17  0.645E-17  0.159E-16
  0.207E-17  0.354E-16  0.377E-16  0.134E-16  0.660E-16  0.620E-16  0.715E-15
  0.564E-14  0.187E-13  0.421E-13  0.491E-12  0.158E-10  0.863E-09  0.313E-07
  0.417E-06  0.309E-05  0.181E-04  0.311E-03  0.180E-02  0.475E-02  0.672E-02
  0.637E-02  0.527E-02  0.375E-02  0.236E-02  0.157E-02  0.117E-02  0.921E-03
  0.729E-03  0.574E-03  0.447E-03  0.342E-03  0.256E-03  0.191E-03  0.142E-03
  0.104E-03  0.745E-04  0.122E-16  0.934E-18  0.231E-16  0.147E-16  0.862E-17
  0.958E-17  0.289E-16  0.947E-17  0.186E-15  0.968E-16  0.345E-16  0.306E-16
  0.629E-16  0.181E-15  0.330E-16  0.103E-15  0.889E-15  0.144E-14  0.207E-14
  0.765E-14  0.441E-13  0.126E-12  0.142E-11  0.498E-11  0.214E-10  0.280E-09
  0.452E-08  0.436E-06  0.678E-05  0.553E-04  0.451E-03  0.202E-02  0.512E-02
  0.730E-02  0.694E-02  0.550E-02  0.382E-02  0.241E-02  0.158E-02  0.115E-02
  0.904E-03  0.732E-03  0.592E-03  0.467E-03  0.356E-03  0.263E-03  0.194E-03
  0.143E-03  0.105E-03  0.750E-04  0.182E-16  0.197E-16  0.282E-16  0.249E-16
  0.275E-16  0.296E-16  0.257E-15  0.745E-15  0.102E-14  0.125E-15  0.367E-15
  0.104E-14  0.171E-15  0.374E-15  0.697E-15  0.394E-14  0.117E-14  0.209E-14
  0.479E-14  0.346E-12  0.292E-11  0.196E-10  0.420E-10  0.165E-09  0.845E-09
  0.320E-08  0.148E-06  0.570E-05  0.381E-04  0.152E-03  0.545E-03  0.181E-02
  0.419E-02  0.602E-02  0.577E-02  0.428E-02  0.279E-02  0.183E-02  0.134E-02
  0.107E-02  0.881E-03  0.730E-03  0.599E-03  0.474E-03  0.360E-03  0.264E-03
  0.194E-03  0.144E-03  0.105E-03  0.751E-04  0.152E-15  0.166E-15  0.127E-15
  0.246E-15  0.285E-15  0.103E-14  0.649E-15  0.282E-14  0.201E-14  0.122E-15
  0.328E-15  0.139E-14  0.229E-12  0.213E-11  0.657E-11  0.120E-10  0.226E-10
  0.278E-10  0.633E-10  0.269E-08  0.114E-07  0.214E-07  0.501E-07  0.175E-07
  0.627E-07  0.455E-06  0.271E-05  0.179E-04  0.734E-04  0.190E-03  0.387E-03
  0.944E-03  0.220E-02  0.364E-02  0.388E-02  0.299E-02  0.199E-02  0.141E-02
  0.113E-02  0.956E-03  0.816E-03  0.698E-03  0.588E-03  0.475E-03  0.363E-03
  0.265E-03  0.193E-03  0.142E-03  0.104E-03  0.739E-04  0.344E-15  0.291E-15
  0.242E-15  0.536E-15  0.707E-15  0.145E-14  0.361E-14  0.109E-13  0.314E-14
  0.208E-13  0.757E-12  0.337E-10  0.445E-09  0.214E-08  0.538E-08  0.120E-07
  0.648E-07  0.124E-06  0.150E-06  0.299E-06  0.516E-06  0.800E-06  0.139E-05
  0.220E-05  0.479E-05  0.861E-05  0.148E-04  0.315E-04  0.835E-04  0.159E-03
  0.229E-03  0.357E-03  0.704E-03  0.135E-02  0.191E-02  0.187E-02  0.147E-02
  0.115E-02  0.973E-03  0.852E-03  0.743E-03  0.655E-03  0.562E-03  0.462E-03
  0.358E-03  0.264E-03  0.193E-03  0.142E-03  0.103E-03  0.738E-04  0.405E-14
  0.599E-13  0.226E-12  0.246E-12  0.152E-13  0.641E-14  0.447E-12  0.126E-11
  0.502E-13  0.442E-10  0.409E-09  0.530E-08  0.371E-07  0.253E-06  0.968E-06
  0.150E-05  0.173E-05  0.142E-05  0.129E-05  0.152E-05  0.219E-05  0.296E-05
  0.490E-05  0.128E-04  0.233E-04  0.307E-04  0.368E-04  0.488E-04  0.831E-04
  0.128E-03  0.149E-03  0.157E-03  0.199E-03  0.391E-03  0.756E-03  0.105E-02
  0.106E-02  0.930E-03  0.823E-03  0.752E-03  0.686E-03  0.612E-03  0.522E-03
  0.425E-03  0.331E-03  0.248E-03  0.186E-03  0.140E-03  0.105E-03  0.746E-04
  0.272E-12  0.948E-11  0.820E-10  0.229E-09  0.198E-09  0.379E-10  0.313E-10
  0.518E-09  0.508E-08  0.525E-07  0.136E-06  0.181E-06  0.566E-06  0.224E-05
  0.658E-05  0.839E-05  0.409E-05  0.189E-05  0.176E-05  0.198E-05  0.281E-05
  0.392E-05  0.686E-05  0.224E-04  0.395E-04  0.536E-04  0.610E-04  0.682E-04
  0.926E-04  0.118E-03  0.126E-03  0.122E-03  0.125E-03  0.170E-03  0.314E-03
  0.515E-03  0.645E-03  0.667E-03  0.641E-03  0.619E-03  0.584E-03  0.522E-03
  0.438E-03  0.357E-03  0.281E-03  0.214E-03  0.165E-03  0.128E-03  0.978E-04
  0.697E-04  0.162E-11  0.893E-10  0.135E-08  0.685E-08  0.165E-07  0.183E-07
  0.822E-08  0.156E-07  0.361E-07  0.110E-06  0.206E-05  0.489E-06  0.108E-05
  0.799E-05  0.128E-04  0.112E-04  0.382E-04  0.114E-02  0.221E-02  0.207E-02
  0.236E-02  0.208E-02  0.164E-02  0.165E-02  0.185E-02  0.172E-02  0.137E-02
  0.102E-02  0.734E-03  0.557E-03  0.442E-03  0.331E-03  0.238E-03  0.188E-03
  0.179E-03  0.236E-03  0.316E-03  0.376E-03  0.408E-03  0.416E-03  0.399E-03
  0.357E-03  0.305E-03  0.255E-03  0.208E-03  0.164E-03  0.128E-03  0.102E-03
  0.798E-04  0.569E-04  0.755E-09  0.351E-07  0.493E-06  0.312E-05  0.114E-04
  0.190E-04  0.158E-04  0.784E-06  0.257E-05  0.978E-04  0.910E-03  0.229E-02
  0.109E-03  0.242E-03  0.503E-03  0.219E-02  0.115E-01  0.316E-01  0.426E-01
  0.366E-01  0.277E-01  0.229E-01  0.196E-01  0.171E-01  0.143E-01  0.108E-01
  0.762E-02  0.521E-02  0.343E-02  0.235E-02  0.161E-02  0.103E-02  0.609E-03
  0.344E-03  0.202E-03  0.146E-03  0.140E-03  0.159E-03  0.179E-03  0.189E-03
  0.185E-03  0.169E-03  0.153E-03  0.135E-03  0.117E-03  0.976E-04  0.814E-04
  0.672E-04  0.551E-04  0.393E-04  0.154E-07  0.655E-06  0.103E-04  0.953E-04
  0.753E-03  0.455E-02  0.133E-01  0.151E-01  0.323E-02  0.141E-02  0.590E-02
  0.221E-01  0.875E-03  0.105E-02  0.359E-02  0.160E-01  0.526E-01  0.110E+00
  0.139E+00  0.113E+00  0.778E-01  0.642E-01  0.535E-01  0.432E-01  0.324E-01
  0.217E-01  0.138E-01  0.854E-02  0.533E-02  0.338E-02  0.214E-02  0.127E-02
  0.688E-03  0.354E-03  0.176E-03  0.918E-04  0.618E-04  0.538E-04  0.544E-04
  0.557E-04  0.537E-04  0.499E-04  0.467E-04  0.437E-04  0.407E-04  0.371E-04
  0.352E-04  0.310E-04  0.294E-04  0.210E-04  0.403E-07  0.167E-05  0.284E-04
  0.302E-03  0.292E-02  0.217E-01  0.787E-01  0.151E+00  0.156E+00  0.924E-01
  0.263E-01  0.481E-01  0.262E-02  0.201E-02  0.766E-02  0.304E-01  0.834E-01
  0.151E+00  0.174E+00  0.141E+00  0.946E-01  0.749E-01  0.599E-01  0.463E-01
  0.331E-01  0.211E-01  0.129E-01  0.771E-02  0.462E-02  0.279E-02  0.166E-02
  0.926E-03  0.472E-03  0.223E-03  0.985E-04  0.431E-04  0.218E-04  0.146E-04
  0.124E-04  0.118E-04  0.110E-04  0.989E-05  0.916E-05  0.879E-05  0.842E-05
  0.797E-05  0.788E-05  0.816E-05  0.130E-04  0.927E-05  0.416E-07  0.168E-05
  0.308E-04  0.364E-03  0.400E-02  0.330E-01  0.144E+00  0.352E+00  0.576E+00
  0.742E+00  0.610E+00  0.275E+00  0.347E-01  0.563E-02  0.126E-01  0.376E-01
  0.870E-01  0.145E+00  0.163E+00  0.130E+00  0.846E-01  0.620E-01  0.476E-01
  0.352E-01  0.244E-01  0.150E-01  0.871E-02  0.500E-02  0.283E-02  0.161E-02
  0.900E-03  0.469E-03  0.228E-03  0.104E-03  0.448E-04  0.189E-04  0.784E-05
  0.351E-05  0.230E-05  0.209E-05  0.208E-05  0.202E-05  0.187E-05  0.172E-05
  0.156E-05  0.133E-05  0.123E-05  0.140E-05  0.748E-05  0.533E-05  0.261E-07
  0.932E-06  0.200E-04  0.280E-03  0.349E-02  0.318E-01  0.147E+00  0.410E+00
  0.842E+00  0.155E+01  0.222E+01  0.158E+01  0.602E+00  0.164E+00  0.538E-01
  0.666E-01  0.115E+00  0.174E+00  0.179E+00  0.130E+00  0.804E-01  0.552E-01
  0.395E-01  0.273E-01  0.176E-01  0.104E-01  0.582E-02  0.320E-02  0.175E-02
  0.101E-02  0.621E-03  0.390E-03  0.232E-03  0.129E-03  0.648E-04  0.293E-04
  0.112E-04  0.354E-05  0.924E-06  0.332E-06  0.300E-06  0.356E-06  0.378E-06
  0.356E-06  0.317E-06  0.234E-06  0.191E-06  0.265E-06  0.507E-05  0.361E-05
  0.128E-07  0.377E-06  0.963E-05  0.159E-03  0.226E-02  0.223E-01  0.111E+00
  0.335E+00  0.792E+00  0.172E+01  0.321E+01  0.344E+01  0.205E+01  0.903E+00
  0.375E+00  0.203E+00  0.190E+00  0.209E+00  0.187E+00  0.127E+00  0.840E-01
  0.592E-01  0.416E-01  0.279E-01  0.179E-01  0.112E-01  0.684E-02  0.430E-02
  0.287E-02  0.206E-02  0.150E-02  0.106E-02  0.666E-03  0.352E-03  0.163E-03
  0.658E-04  0.217E-04  0.556E-05  0.106E-05  0.146E-06  0.329E-07  0.382E-07
  0.510E-07  0.599E-07  0.665E-07  0.459E-07  0.325E-07  0.440E-07  0.304E-05
  0.216E-05  0.737E-08  0.222E-06  0.637E-05  0.106E-03  0.149E-02  0.145E-01
  0.711E-01  0.205E+00  0.496E+00  0.120E+01  0.273E+01  0.386E+01  0.310E+01
  0.195E+01  0.108E+01  0.594E+00  0.378E+00  0.278E+00  0.194E+00  0.132E+00
  0.949E-01  0.693E-01  0.518E-01  0.364E-01  0.249E-01  0.182E-01  0.132E-01
  0.968E-02  0.716E-02  0.517E-02  0.354E-02  0.225E-02  0.125E-02  0.583E-03
  0.242E-03  0.901E-04  0.283E-04  0.694E-05  0.126E-05  0.155E-06  0.120E-07
  0.239E-08  0.387E-08  0.803E-08  0.145E-07  0.102E-07  0.711E-08  0.859E-08
  0.149E-05  0.106E-05  0.438E-08  0.153E-06  0.458E-05  0.745E-04  0.102E-02
  0.944E-02  0.450E-01  0.117E+00  0.251E+00  0.571E+00  0.139E+01  0.247E+01
  0.265E+01  0.220E+01  0.157E+01  0.101E+01  0.676E+00  0.448E+00  0.298E+00
  0.205E+00  0.141E+00  0.989E-01  0.752E-01  0.555E-01  0.391E-01  0.281E-01
  0.204E-01  0.148E-01  0.105E-01  0.693E-02  0.427E-02  0.246E-02  0.128E-02
  0.566E-03  0.223E-03  0.801E-04  0.252E-04  0.654E-05  0.130E-05  0.176E-06
  0.144E-07  0.772E-09  0.109E-09  0.114E-08  0.329E-08  0.235E-08  0.169E-08
  0.188E-08  0.521E-06  0.371E-06  0.221E-08  0.869E-07  0.265E-05  0.430E-04
  0.576E-03  0.522E-02  0.247E-01  0.623E-01  0.120E+00  0.239E+00  0.520E+00
  0.981E+00  0.130E+01  0.138E+01  0.126E+01  0.103E+01  0.759E+00  0.544E+00
  0.382E+00  0.272E+00  0.190E+00  0.130E+00  0.936E-01  0.677E-01  0.475E-01
  0.327E-01  0.221E-01  0.149E-01  0.976E-02  0.604E-02  0.348E-02  0.186E-02
  0.897E-03  0.380E-03  0.148E-03  0.554E-04  0.189E-04  0.550E-05  0.126E-05
  0.208E-06  0.212E-07  0.141E-08  0.740E-10  0.164E-09  0.632E-09  0.467E-09
  0.344E-09  0.319E-09  0.590E-07  0.421E-07  0.929E-09  0.399E-07  0.123E-05
  0.198E-04  0.261E-03  0.234E-02  0.109E-01  0.276E-01  0.520E-01  0.997E-01
  0.195E+00  0.321E+00  0.421E+00  0.524E+00  0.579E+00  0.565E+00  0.505E+00
  0.413E+00  0.321E+00  0.246E+00  0.184E+00  0.134E+00  0.976E-01  0.695E-01
  0.473E-01  0.307E-01  0.191E-01  0.117E-01  0.702E-02  0.403E-02  0.218E-02
  0.111E-02  0.528E-03  0.227E-03  0.934E-04  0.376E-04  0.140E-04  0.457E-05
  0.123E-05  0.248E-06  0.312E-07  0.277E-08  0.385E-09  0.303E-09  0.373E-09
  0.257E-09  0.174E-09  0.119E-09  0.674E-10  0.481E-10  0.335E-09  0.151E-07
  0.470E-06  0.755E-05  0.979E-04  0.881E-03  0.407E-02  0.101E-01  0.187E-01
  0.358E-01  0.709E-01  0.111E+00  0.126E+00  0.148E+00  0.178E+00  0.198E+00
  0.209E+00  0.204E+00  0.189E+00  0.162E+00  0.130E+00  0.100E+00  0.753E-01
  0.537E-01  0.355E-01  0.222E-01  0.132E-01  0.769E-02  0.445E-02  0.251E-02
  0.136E-02  0.709E-03  0.346E-03  0.152E-03  0.640E-04  0.264E-04  0.104E-04
  0.377E-05  0.119E-05  0.292E-06  0.511E-07  0.151E-07  0.135E-07  0.139E-07
  0.120E-07  0.751E-08  0.461E-08  0.275E-08  0.159E-08  0.113E-08  0.969E-10
  0.449E-08  0.141E-06  0.227E-05  0.290E-04  0.262E-03  0.122E-02  0.300E-02
  0.542E-02  0.991E-02  0.193E-01  0.308E-01  0.354E-01  0.395E-01  0.453E-01
  0.510E-01  0.571E-01  0.621E-01  0.670E-01  0.681E-01  0.629E-01  0.521E-01
  0.407E-01  0.298E-01  0.203E-01  0.127E-01  0.799E-02  0.476E-02  0.280E-02
  0.164E-02  0.940E-03  0.514E-03  0.257E-03  0.114E-03  0.483E-04  0.201E-04
  0.821E-05  0.319E-05  0.113E-05  0.386E-06  0.205E-06  0.196E-06  0.197E-06
  0.177E-06  0.138E-06  0.841E-07  0.516E-07  0.321E-07  0.197E-07  0.141E-07
  0.194E-10  0.886E-09  0.265E-07  0.423E-06  0.532E-05  0.493E-04  0.245E-03
  0.603E-03  0.108E-02  0.182E-02  0.345E-02  0.456E-02  0.603E-02  0.717E-02
  0.818E-02  0.871E-02  0.944E-02  0.103E-01  0.121E-01  0.139E-01  0.147E-01
  0.138E-01  0.119E-01  0.876E-02  0.662E-02  0.479E-02  0.331E-02  0.214E-02
  0.134E-02  0.839E-03  0.522E-03  0.310E-03  0.170E-03  0.827E-04  0.373E-04
  0.158E-04  0.664E-05  0.277E-05  0.138E-05  0.117E-05  0.133E-05  0.146E-05
  0.136E-05  0.112E-05  0.841E-06  0.554E-06  0.418E-06  0.356E-06  0.290E-06
  0.207E-06  0.158E-11  0.783E-10  0.189E-08  0.297E-07  0.428E-06  0.398E-05
  0.185E-04  0.462E-04  0.813E-04  0.732E-04  0.145E-03  0.322E-03  0.396E-03
  0.509E-03  0.628E-03  0.630E-03  0.616E-03  0.586E-03  0.661E-03  0.910E-03
  0.119E-02  0.141E-02  0.150E-02  0.112E-02  0.103E-02  0.865E-03  0.679E-03
  0.495E-03  0.347E-03  0.239E-03  0.162E-03  0.108E-03  0.677E-04  0.383E-04
  0.209E-04  0.113E-04  0.611E-05  0.393E-05  0.395E-05  0.514E-05  0.644E-05
  0.712E-05  0.667E-05  0.589E-05  0.515E-05  0.436E-05  0.398E-05  0.348E-05
  0.281E-05  0.200E-05  0.140E-13  0.527E-12  0.286E-10  0.294E-09  0.159E-08
  0.154E-07  0.901E-07  0.230E-06  0.366E-06  0.261E-05  0.345E-05  0.756E-06
  0.127E-05  0.465E-05  0.726E-05  0.636E-05  0.486E-05  0.366E-05  0.312E-05
  0.347E-05  0.497E-05  0.818E-05  0.149E-04  0.273E-04  0.401E-04  0.374E-04
  0.428E-04  0.406E-04  0.350E-04  0.278E-04  0.202E-04  0.142E-04  0.109E-04
  0.104E-04  0.114E-04  0.132E-04  0.116E-04  0.110E-04  0.145E-04  0.203E-04
  0.261E-04  0.281E-04  0.258E-04  0.238E-04  0.222E-04  0.199E-04  0.176E-04
  0.145E-04  0.113E-04  0.806E-05  0.325E-14  0.594E-14  0.742E-13  0.580E-12
  0.383E-11  0.201E-10  0.925E-10  0.349E-09  0.732E-09  0.175E-08  0.350E-08
  0.110E-07  0.175E-07  0.242E-07  0.386E-07  0.538E-07  0.594E-07  0.531E-07
  0.406E-07  0.264E-07  0.151E-07  0.786E-08  0.414E-08  0.275E-08  0.318E-08
  0.460E-08  0.414E-07  0.145E-06  0.269E-06  0.328E-06  0.393E-06  0.724E-06
  0.259E-05  0.107E-04  0.289E-04  0.426E-04  0.393E-04  0.394E-04  0.541E-04
  0.768E-04  0.925E-04  0.872E-04  0.743E-04  0.667E-04  0.598E-04  0.522E-04
  0.437E-04  0.342E-04  0.256E-04  0.182E-04  0.175E-14  0.377E-14  0.263E-13
  0.803E-13  0.125E-12  0.563E-12  0.280E-11  0.344E-10  0.176E-10  0.319E-10
  0.740E-10  0.159E-09  0.328E-09  0.681E-09  0.134E-08  0.232E-08  0.320E-08
  0.354E-08  0.320E-08  0.228E-08  0.158E-08  0.105E-08  0.637E-09  0.333E-09
  0.249E-09  0.650E-10  0.197E-10  0.329E-10  0.167E-08  0.175E-07  0.151E-06
  0.116E-05  0.782E-05  0.350E-04  0.901E-04  0.132E-03  0.131E-03  0.142E-03
  0.194E-03  0.251E-03  0.248E-03  0.190E-03  0.150E-03  0.127E-03  0.106E-03
  0.892E-04  0.720E-04  0.548E-04  0.406E-04  0.290E-04  0.108E-14  0.138E-14
  0.334E-14  0.166E-13  0.916E-13  0.371E-12  0.113E-11  0.124E-11  0.132E-11
  0.138E-11  0.206E-11  0.180E-11  0.112E-11  0.202E-11  0.443E-11  0.102E-10
  0.204E-10  0.341E-10  0.432E-10  0.400E-10  0.388E-10  0.323E-10  0.238E-10
  0.153E-10  0.836E-11  0.395E-11  0.175E-11  0.556E-10  0.397E-08  0.314E-07
  0.276E-06  0.256E-05  0.187E-04  0.787E-04  0.192E-03  0.280E-03  0.321E-03
  0.413E-03  0.560E-03  0.613E-03  0.464E-03  0.306E-03  0.232E-03  0.184E-03
  0.149E-03  0.122E-03  0.967E-04  0.731E-04  0.537E-04  0.383E-04  0.283E-15
  0.401E-15  0.694E-15  0.822E-15  0.328E-14  0.104E-13  0.486E-13  0.926E-16
  0.902E-16  0.994E-15  0.483E-15  0.122E-13  0.851E-14  0.820E-14  0.147E-13
  0.131E-13  0.115E-13  0.386E-14  0.129E-13  0.344E-13  0.653E-13  0.944E-13
  0.117E-12  0.115E-12  0.960E-13  0.664E-13  0.119E-12  0.636E-11  0.454E-08
  0.481E-07  0.472E-06  0.423E-05  0.284E-04  0.110E-03  0.254E-03  0.396E-03
  0.548E-03  0.836E-03  0.113E-02  0.103E-02  0.680E-03  0.433E-03  0.311E-03
  0.241E-03  0.191E-03  0.152E-03  0.118E-03  0.885E-04  0.640E-04  0.456E-04
  0.103E-15  0.190E-15  0.157E-15  0.121E-15  0.246E-16  0.125E-16  0.432E-15
  0.740E-17  0.209E-16  0.715E-15  0.588E-16  0.176E-15  0.106E-14  0.247E-14
  0.123E-14  0.165E-14  0.169E-14  0.355E-15  0.230E-15  0.650E-15  0.354E-15
  0.637E-15  0.898E-15  0.375E-14  0.183E-13  0.109E-12  0.673E-12  0.992E-11
  0.259E-08  0.517E-07  0.633E-06  0.545E-05  0.308E-04  0.108E-03  0.246E-03
  0.443E-03  0.777E-03  0.133E-02  0.168E-02  0.138E-02  0.905E-03  0.572E-03
  0.396E-03  0.301E-03  0.231E-03  0.176E-03  0.133E-03  0.977E-04  0.697E-04
  0.497E-04  0.172E-16  0.796E-16  0.546E-16  0.482E-16  0.448E-16  0.763E-16
  0.110E-15  0.204E-16  0.467E-16  0.196E-15  0.363E-16  0.195E-15  0.292E-15
  0.450E-15  0.471E-15  0.185E-15  0.239E-15  0.139E-15  0.765E-16  0.149E-15
  0.735E-15  0.101E-14  0.199E-14  0.624E-14  0.190E-13  0.625E-13  0.414E-12
  0.214E-11  0.612E-09  0.364E-07  0.565E-06  0.604E-05  0.335E-04  0.103E-03
  0.233E-03  0.476E-03  0.984E-03  0.174E-02  0.206E-02  0.164E-02  0.108E-02
  0.683E-03  0.472E-03  0.350E-03  0.260E-03  0.192E-03  0.142E-03  0.103E-03
  0.734E-04  0.523E-04  0.993E-17  0.250E-16  0.318E-16  0.248E-16  0.273E-16
  0.470E-16  0.525E-16  0.111E-16  0.202E-16  0.880E-16  0.345E-16  0.180E-15
  0.924E-16  0.225E-15  0.288E-15  0.477E-17  0.209E-16  0.167E-16  0.792E-16
  0.106E-15  0.127E-14  0.339E-14  0.944E-14  0.983E-14  0.212E-13  0.185E-12
  0.166E-11  0.143E-10  0.356E-09  0.202E-07  0.431E-06  0.580E-05  0.346E-04
  0.114E-03  0.274E-03  0.592E-03  0.119E-02  0.197E-02  0.222E-02  0.181E-02
  0.118E-02  0.765E-03  0.529E-03  0.383E-03  0.281E-03  0.205E-03  0.150E-03
  0.110E-03  0.784E-04  0.559E-04  0.501E-17  0.154E-16  0.181E-16  0.130E-16
  0.138E-16  0.176E-16  0.380E-16  0.155E-16  0.516E-16  0.157E-16  0.141E-16
  0.295E-16  0.425E-16  0.115E-16  0.337E-16  0.144E-15  0.149E-15  0.215E-15
  0.259E-16  0.186E-16  0.796E-14  0.647E-14  0.496E-14  0.146E-13  0.808E-13
  0.417E-11  0.121E-09  0.159E-08  0.102E-07  0.530E-07  0.502E-06  0.494E-05
  0.292E-04  0.116E-03  0.346E-03  0.821E-03  0.153E-02  0.212E-02  0.221E-02
  0.178E-02  0.120E-02  0.812E-03  0.564E-03  0.408E-03  0.298E-03  0.218E-03
  0.162E-03  0.118E-03  0.847E-04  0.604E-04  0.142E-16  0.667E-17  0.208E-16
  0.180E-16  0.941E-17  0.188E-16  0.151E-16  0.288E-17  0.752E-17  0.614E-16
  0.152E-16  0.126E-15  0.400E-16  0.115E-15  0.203E-15  0.634E-17  0.582E-17
  0.419E-17  0.353E-16  0.185E-15  0.130E-13  0.231E-14  0.556E-14  0.200E-13
  0.181E-12  0.476E-10  0.230E-08  0.426E-07  0.243E-06  0.610E-06  0.123E-05
  0.377E-05  0.162E-04  0.761E-04  0.310E-03  0.923E-03  0.174E-02  0.209E-02
  0.201E-02  0.159E-02  0.115E-02  0.810E-03  0.571E-03  0.420E-03  0.311E-03
  0.232E-03  0.172E-03  0.126E-03  0.909E-04  0.648E-04  0.217E-17  0.137E-16
  0.108E-16  0.373E-17  0.568E-17  0.480E-17  0.396E-16  0.111E-16  0.455E-16
  0.411E-17  0.830E-17  0.262E-16  0.300E-16  0.193E-16  0.263E-16  0.131E-15
  0.103E-15  0.195E-15  0.390E-16  0.593E-16  0.582E-14  0.730E-14  0.710E-14
  0.319E-13  0.365E-12  0.183E-09  0.102E-07  0.200E-06  0.149E-05  0.398E-05
  0.575E-05  0.695E-05  0.865E-05  0.265E-04  0.192E-03  0.851E-03  0.173E-02
  0.194E-02  0.171E-02  0.137E-02  0.105E-02  0.766E-03  0.554E-03  0.415E-03
  0.316E-03  0.240E-03  0.180E-03  0.132E-03  0.960E-04  0.684E-04  0.111E-16
  0.643E-17  0.226E-16  0.199E-16  0.549E-17  0.140E-16  0.799E-17  0.259E-17
  0.132E-16  0.560E-16  0.166E-16  0.118E-15  0.536E-16  0.157E-15  0.217E-15
  0.520E-17  0.320E-17  0.741E-17  0.586E-17  0.721E-15  0.365E-14  0.695E-14
  0.643E-14  0.368E-13  0.155E-11  0.401E-09  0.235E-07  0.512E-06  0.349E-05
  0.106E-04  0.173E-04  0.283E-04  0.482E-04  0.111E-03  0.360E-03  0.106E-02
  0.177E-02  0.179E-02  0.149E-02  0.120E-02  0.942E-03  0.710E-03  0.532E-03
  0.407E-03  0.316E-03  0.243E-03  0.183E-03  0.136E-03  0.996E-04  0.710E-04
  0.859E-18  0.899E-17  0.328E-17  0.762E-17  0.433E-17  0.299E-17  0.340E-16
  0.121E-16  0.696E-16  0.208E-16  0.682E-17  0.852E-17  0.227E-16  0.253E-16
  0.616E-16  0.133E-15  0.818E-16  0.223E-15  0.737E-17  0.108E-14  0.252E-14
  0.783E-14  0.819E-14  0.883E-13  0.673E-11  0.820E-09  0.491E-07  0.886E-06
  0.587E-05  0.138E-04  0.589E-04  0.224E-03  0.587E-03  0.103E-02  0.148E-02
  0.197E-02  0.207E-02  0.176E-02  0.140E-02  0.114E-02  0.899E-03  0.692E-03
  0.530E-03  0.409E-03  0.318E-03  0.244E-03  0.185E-03  0.138E-03  0.102E-03
  0.728E-04
20220912 080000
'44097     '  40.98 -71.12      46.6   2.56 155.5   0.18  94.1
  0.206E-16  0.270E-17  0.269E-16  0.322E-16  0.675E-17  0.207E-16  0.717E-17
  0.237E-17  0.145E-17  0.647E-16  0.313E-16  0.944E-16  0.373E-16  0.129E-15
  0.446E-17  0.127E-17  0.568E-17  0.515E-17  0.102E-16  0.624E-15  0.294E-14
  0.960E-14  0.185E-13  0.802E-13  0.496E-11  0.304E-09  0.201E-07  0.413E-06
  0.358E-05  0.107E-04  0.737E-04  0.509E-03  0.163E-02  0.281E-02  0.307E-02
  0.274E-02  0.212E-02  0.150E-02  0.110E-02  0.875E-03  0.694E-03  0.533E-03
  0.403E-03  0.304E-03  0.229E-03  0.172E-03  0.129E-03  0.961E-04  0.707E-04
  0.504E-04  0.327E-18  0.734E-17  0.111E-17  0.843E-18  0.446E-17  0.177E-17
  0.216E-16  0.921E-17  0.171E-16  0.337E-16  0.636E-17  0.194E-16  0.165E-16
  0.237E-16  0.389E-16  0.397E-16  0.150E-16  0.804E-16  0.216E-15  0.124E-14
  0.464E-14  0.136E-13  0.368E-13  0.193E-12  0.517E-11  0.163E-09  0.105E-07
  0.203E-06  0.209E-05  0.688E-05  0.111E-03  0.984E-03  0.318E-02  0.521E-02
  0.526E-02  0.436E-02  0.312E-02  0.195E-02  0.127E-02  0.925E-03  0.715E-03
  0.554E-03  0.428E-03  0.326E-03  0.244E-03  0.180E-03  0.133E-03  0.983E-04
  0.719E-04  0.512E-04  0.141E-16  0.433E-17  0.209E-16  0.208E-16  0.662E-17
  0.106E-16  0.253E-16  0.760E-17  0.151E-15  0.101E-15  0.572E-16  0.551E-16
  0.124E-15  0.297E-15  0.387E-16  0.234E-16  0.521E-15  0.168E-14  0.349E-14
  0.119E-13  0.574E-13  0.278E-12  0.236E-11  0.690E-11  0.184E-10  0.142E-09
  0.242E-08  0.955E-07  0.245E-05  0.203E-04  0.209E-03  0.117E-02  0.350E-02
  0.569E-02  0.579E-02  0.466E-02  0.324E-02  0.203E-02  0.132E-02  0.942E-03
  0.728E-03  0.576E-03  0.456E-03  0.351E-03  0.262E-03  0.190E-03  0.139E-03
  0.101E-03  0.737E-04  0.526E-04  0.234E-16  0.234E-16  0.200E-16  0.183E-16
  0.220E-16  0.609E-16  0.185E-15  0.867E-15  0.690E-15  0.146E-15  0.163E-15
  0.266E-15  0.150E-15  0.367E-15  0.463E-15  0.202E-15  0.845E-15  0.257E-14
  0.815E-14  0.397E-12  0.257E-11  0.176E-10  0.409E-10  0.210E-09  0.100E-08
  0.399E-08  0.199E-07  0.202E-05  0.176E-04  0.791E-04  0.293E-03  0.109E-02
  0.287E-02  0.463E-02  0.478E-02  0.366E-02  0.242E-02  0.156E-02  0.113E-02
  0.888E-03  0.735E-03  0.601E-03  0.487E-03  0.378E-03  0.280E-03  0.200E-03
  0.145E-03  0.105E-03  0.758E-04  0.540E-04  0.152E-15  0.139E-15  0.127E-15
  0.535E-15  0.288E-15  0.697E-15  0.129E-14  0.404E-14  0.143E-14  0.145E-15
  0.180E-15  0.425E-15  0.105E-12  0.157E-11  0.591E-11  0.107E-10  0.182E-10
  0.223E-10  0.456E-10  0.244E-08  0.189E-07  0.325E-07  0.744E-07  0.223E-07
  0.696E-07  0.430E-06  0.198E-05  0.100E-04  0.412E-04  0.114E-03  0.233E-03
  0.562E-03  0.142E-02  0.264E-02  0.311E-02  0.254E-02  0.174E-02  0.120E-02
  0.956E-03  0.813E-03  0.699E-03  0.599E-03  0.505E-03  0.405E-03  0.303E-03
  0.213E-03  0.151E-03  0.108E-03  0.766E-04  0.546E-04  0.357E-15  0.268E-15
  0.227E-15  0.684E-15  0.740E-15  0.150E-14  0.428E-14  0.125E-13  0.194E-14
  0.221E-13  0.510E-12  0.236E-10  0.354E-09  0.182E-08  0.561E-08  0.153E-07
  0.572E-07  0.125E-06  0.148E-06  0.277E-06  0.536E-06  0.877E-06  0.158E-05
  0.234E-05  0.504E-05  0.920E-05  0.149E-04  0.253E-04  0.562E-04  0.109E-03
  0.158E-03  0.228E-03  0.438E-03  0.910E-03  0.145E-02  0.155E-02  0.127E-02
  0.992E-03  0.830E-03  0.733E-03  0.654E-03  0.583E-03  0.505E-03  0.419E-03
  0.322E-03  0.228E-03  0.160E-03  0.112E-03  0.792E-04  0.565E-04  0.336E-14
  0.547E-13  0.217E-12  0.247E-12  0.178E-13  0.627E-14  0.449E-12  0.127E-11
  0.532E-13  0.114E-09  0.140E-08  0.777E-08  0.341E-07  0.233E-06  0.968E-06
  0.141E-05  0.163E-05  0.139E-05  0.119E-05  0.139E-05  0.205E-05  0.297E-05
  0.526E-05  0.133E-04  0.253E-04  0.337E-04  0.392E-04  0.463E-04  0.687E-04
  0.102E-03  0.120E-03  0.122E-03  0.141E-03  0.261E-03  0.553E-03  0.856E-03
  0.910E-03  0.817E-03  0.719E-03  0.657E-03  0.610E-03  0.558E-03  0.489E-03
  0.408E-03  0.321E-03  0.234E-03  0.171E-03  0.124E-03  0.885E-04  0.631E-04
  0.209E-12  0.840E-11  0.748E-10  0.214E-09  0.193E-09  0.379E-10  0.275E-10
  0.571E-09  0.535E-08  0.528E-07  0.166E-06  0.152E-06  0.530E-06  0.210E-05
  0.631E-05  0.822E-05  0.459E-05  0.182E-05  0.161E-05  0.180E-05  0.257E-05
  0.386E-05  0.722E-05  0.242E-04  0.434E-04  0.552E-04  0.609E-04  0.636E-04
  0.801E-04  0.101E-03  0.108E-03  0.105E-03  0.105E-03  0.135E-03  0.240E-03
  0.419E-03  0.548E-03  0.587E-03  0.574E-03  0.555E-03  0.531E-03  0.492E-03
  0.434E-03  0.376E-03  0.307E-03  0.237E-03  0.180E-03  0.134E-03  0.968E-04
  0.690E-04  0.122E-11  0.780E-10  0.121E-08  0.637E-08  0.156E-07  0.167E-07
  0.666E-08  0.137E-07  0.353E-07  0.179E-06  0.219E-05  0.149E-05  0.126E-05
  0.636E-05  0.110E-04  0.115E-04  0.231E-04  0.764E-03  0.212E-02  0.211E-02
  0.218E-02  0.193E-02  0.140E-02  0.135E-02  0.156E-02  0.153E-02  0.128E-02
  0.977E-03  0.708E-03  0.537E-03  0.426E-03  0.328E-03  0.235E-03  0.177E-03
  0.160E-03  0.202E-03  0.272E-03  0.329E-03  0.370E-03  0.384E-03  0.375E-03
  0.358E-03  0.337E-03  0.321E-03  0.277E-03  0.224E-03  0.172E-03  0.132E-03
  0.102E-03  0.729E-04  0.584E-09  0.283E-07  0.406E-06  0.271E-05  0.105E-04
  0.181E-04  0.156E-04  0.832E-06  0.283E-05  0.116E-03  0.786E-03  0.243E-02
  0.986E-04  0.238E-03  0.529E-03  0.179E-02  0.975E-02  0.290E-01  0.408E-01
  0.359E-01  0.260E-01  0.214E-01  0.180E-01  0.157E-01  0.134E-01  0.103E-01
  0.741E-02  0.511E-02  0.340E-02  0.233E-02  0.161E-02  0.104E-02  0.627E-03
  0.355E-03  0.202E-03  0.138E-03  0.127E-03  0.143E-03  0.166E-03  0.181E-03
  0.184E-03  0.190E-03  0.205E-03  0.218E-03  0.217E-03  0.185E-03  0.151E-03
  0.124E-03  0.103E-03  0.737E-04  0.118E-07  0.515E-06  0.823E-05  0.774E-04
  0.625E-03  0.404E-02  0.129E-01  0.153E-01  0.353E-02  0.159E-02  0.579E-02
  0.235E-01  0.102E-02  0.101E-02  0.331E-02  0.141E-01  0.483E-01  0.103E+00
  0.131E+00  0.110E+00  0.746E-01  0.607E-01  0.507E-01  0.412E-01  0.316E-01
  0.216E-01  0.139E-01  0.860E-02  0.533E-02  0.337E-02  0.215E-02  0.129E-02
  0.708E-03  0.365E-03  0.179E-03  0.903E-04  0.586E-04  0.515E-04  0.537E-04
  0.581E-04  0.627E-04  0.711E-04  0.878E-04  0.112E-03  0.131E-03  0.125E-03
  0.111E-03  0.949E-04  0.844E-04  0.601E-04  0.304E-07  0.130E-05  0.224E-04
  0.240E-03  0.236E-02  0.189E-01  0.749E-01  0.148E+00  0.159E+00  0.930E-01
  0.255E-01  0.499E-01  0.307E-02  0.186E-02  0.679E-02  0.271E-01  0.778E-01
  0.142E+00  0.166E+00  0.137E+00  0.927E-01  0.725E-01  0.579E-01  0.449E-01
  0.327E-01  0.212E-01  0.131E-01  0.780E-02  0.462E-02  0.279E-02  0.167E-02
  0.940E-03  0.485E-03  0.230E-03  0.101E-03  0.431E-04  0.215E-04  0.152E-04
  0.146E-04  0.172E-04  0.202E-04  0.239E-04  0.309E-04  0.415E-04  0.540E-04
  0.584E-04  0.576E-04  0.539E-04  0.730E-04  0.520E-04  0.309E-07  0.128E-05
  0.240E-04  0.284E-03  0.315E-02  0.285E-01  0.135E+00  0.339E+00  0.574E+00
  0.734E+00  0.577E+00  0.254E+00  0.323E-01  0.504E-02  0.110E-01  0.338E-01
  0.809E-01  0.137E+00  0.153E+00  0.126E+00  0.828E-01  0.601E-01  0.459E-01
  0.341E-01  0.240E-01  0.151E-01  0.884E-02  0.505E-02  0.283E-02  0.160E-02
  0.895E-03  0.472E-03  0.230E-03  0.104E-03  0.443E-04  0.181E-04  0.763E-05
  0.421E-05  0.438E-05  0.618E-05  0.790E-05  0.902E-05  0.104E-04  0.125E-04
  0.151E-04  0.172E-04  0.183E-04  0.222E-04  0.617E-04  0.440E-04  0.190E-07
  0.677E-06  0.151E-04  0.212E-03  0.269E-02  0.268E-01  0.137E+00  0.392E+00
  0.832E+00  0.154E+01  0.212E+01  0.150E+01  0.568E+00  0.146E+00  0.453E-01
  0.598E-01  0.105E+00  0.162E+00  0.170E+00  0.125E+00  0.775E-01  0.527E-01
  0.378E-01  0.264E-01  0.172E-01  0.104E-01  0.588E-02  0.323E-02  0.174E-02
  0.970E-03  0.574E-03  0.354E-03  0.212E-03  0.116E-03  0.588E-04  0.266E-04
  0.104E-04  0.364E-05  0.177E-05  0.211E-05  0.285E-05  0.314E-05  0.314E-05
  0.312E-05  0.320E-05  0.311E-05  0.332E-05  0.505E-05  0.496E-04  0.354E-04
  0.913E-08  0.248E-06  0.697E-05  0.115E-03  0.169E-02  0.184E-01  0.102E+00
  0.317E+00  0.774E+00  0.170E+01  0.307E+01  0.332E+01  0.197E+01  0.824E+00
  0.325E+00  0.176E+00  0.168E+00  0.193E+00  0.178E+00  0.122E+00  0.803E-01
  0.568E-01  0.403E-01  0.274E-01  0.177E-01  0.112E-01  0.682E-02  0.418E-02
  0.272E-02  0.187E-02  0.135E-02  0.955E-03  0.611E-03  0.331E-03  0.155E-03
  0.633E-04  0.209E-04  0.542E-05  0.121E-05  0.562E-06  0.705E-06  0.815E-06
  0.820E-06  0.831E-06  0.841E-06  0.652E-06  0.542E-06  0.874E-06  0.382E-04
  0.273E-04  0.512E-08  0.138E-06  0.452E-05  0.758E-04  0.111E-02  0.119E-01
  0.648E-01  0.194E+00  0.477E+00  0.118E+01  0.261E+01  0.376E+01  0.303E+01
  0.183E+01  0.958E+00  0.515E+00  0.342E+00  0.263E+00  0.187E+00  0.127E+00
  0.920E-01  0.678E-01  0.510E-01  0.362E-01  0.247E-01  0.180E-01  0.130E-01
  0.929E-02  0.679E-02  0.491E-02  0.339E-02  0.218E-02  0.124E-02  0.588E-03
  0.246E-03  0.910E-04  0.283E-04  0.698E-05  0.131E-05  0.208E-06  0.901E-07
  0.110E-06  0.127E-06  0.179E-06  0.243E-06  0.180E-06  0.134E-06  0.200E-06
  0.287E-04  0.205E-04  0.298E-08  0.948E-07  0.325E-05  0.536E-04  0.760E-03
  0.780E-02  0.410E-01  0.111E+00  0.237E+00  0.558E+00  0.134E+01  0.243E+01
  0.262E+01  0.210E+01  0.143E+01  0.918E+00  0.629E+00  0.434E+00  0.292E+00
  0.198E+00  0.137E+00  0.972E-01  0.738E-01  0.545E-01  0.381E-01  0.272E-01
  0.197E-01  0.143E-01  0.102E-01  0.682E-02  0.427E-02  0.249E-02  0.131E-02
  0.591E-03  0.235E-03  0.841E-04  0.263E-04  0.680E-05  0.136E-05  0.189E-06
  0.205E-07  0.677E-08  0.859E-08  0.260E-07  0.589E-07  0.436E-07  0.322E-07
  0.428E-07  0.191E-04  0.136E-04  0.147E-08  0.541E-07  0.188E-05  0.310E-04
  0.432E-03  0.434E-02  0.226E-01  0.591E-01  0.112E+00  0.230E+00  0.493E+00
  0.957E+00  0.129E+01  0.136E+01  0.120E+01  0.963E+00  0.725E+00  0.537E+00
  0.379E+00  0.266E+00  0.184E+00  0.125E+00  0.893E-01  0.645E-01  0.450E-01
  0.311E-01  0.212E-01  0.144E-01  0.957E-02  0.602E-02  0.352E-02  0.193E-02
  0.948E-03  0.407E-03  0.160E-03  0.594E-04  0.200E-04  0.578E-05  0.132E-05
  0.216E-06  0.217E-07  0.167E-08  0.251E-09  0.327E-08  0.117E-07  0.879E-08
  0.655E-08  0.763E-08  0.107E-04  0.765E-05  0.608E-09  0.249E-07  0.871E-06
  0.143E-04  0.196E-03  0.195E-02  0.999E-02  0.262E-01  0.487E-01  0.951E-01
  0.182E+00  0.310E+00  0.412E+00  0.518E+00  0.576E+00  0.553E+00  0.494E+00
  0.408E+00  0.318E+00  0.240E+00  0.176E+00  0.125E+00  0.903E-01  0.646E-01
  0.443E-01  0.291E-01  0.183E-01  0.114E-01  0.692E-02  0.403E-02  0.221E-02
  0.115E-02  0.552E-03  0.241E-03  0.100E-03  0.401E-04  0.148E-04  0.478E-05
  0.128E-05  0.253E-06  0.310E-07  0.263E-08  0.296E-09  0.947E-09  0.301E-08
  0.224E-08  0.167E-08  0.161E-08  0.446E-05  0.318E-05  0.216E-09  0.936E-08
  0.334E-06  0.544E-05  0.732E-04  0.733E-03  0.371E-02  0.956E-02  0.175E-01
  0.342E-01  0.660E-01  0.107E+00  0.122E+00  0.144E+00  0.180E+00  0.200E+00
  0.207E+00  0.200E+00  0.185E+00  0.158E+00  0.125E+00  0.945E-01  0.701E-01
  0.503E-01  0.338E-01  0.214E-01  0.128E-01  0.751E-02  0.436E-02  0.247E-02
  0.135E-02  0.708E-03  0.348E-03  0.157E-03  0.674E-04  0.278E-04  0.108E-04
  0.388E-05  0.121E-05  0.291E-06  0.474E-07  0.117E-07  0.926E-08  0.976E-08
  0.884E-08  0.558E-08  0.345E-08  0.214E-08  0.899E-06  0.641E-06  0.618E-10
  0.277E-08  0.100E-06  0.163E-05  0.216E-04  0.216E-03  0.111E-02  0.285E-02
  0.510E-02  0.947E-02  0.180E-01  0.294E-01  0.343E-01  0.378E-01  0.450E-01
  0.519E-01  0.574E-01  0.611E-01  0.650E-01  0.664E-01  0.610E-01  0.500E-01
  0.386E-01  0.286E-01  0.197E-01  0.126E-01  0.791E-02  0.472E-02  0.277E-02
  0.161E-02  0.915E-03  0.500E-03  0.251E-03  0.115E-03  0.500E-04  0.208E-04
  0.840E-05  0.320E-05  0.113E-05  0.355E-06  0.162E-06  0.143E-06  0.143E-06
  0.129E-06  0.997E-07  0.601E-07  0.362E-07  0.221E-07  0.261E-06  0.186E-06
  0.123E-10  0.553E-09  0.188E-07  0.305E-06  0.395E-05  0.402E-04  0.221E-03
  0.573E-03  0.102E-02  0.175E-02  0.323E-02  0.429E-02  0.580E-02  0.673E-02
  0.782E-02  0.861E-02  0.938E-02  0.101E-01  0.116E-01  0.135E-01  0.142E-01
  0.133E-01  0.115E-01  0.856E-02  0.665E-02  0.487E-02  0.339E-02  0.219E-02
  0.135E-02  0.834E-03  0.511E-03  0.300E-03  0.163E-03  0.810E-04  0.374E-04
  0.159E-04  0.656E-05  0.267E-05  0.121E-05  0.926E-06  0.996E-06  0.109E-05
  0.102E-05  0.846E-06  0.629E-06  0.408E-06  0.303E-06  0.253E-06  0.415E-06
  0.296E-06  0.969E-12  0.494E-10  0.131E-08  0.212E-07  0.316E-06  0.323E-05
  0.165E-04  0.437E-04  0.758E-04  0.702E-04  0.134E-03  0.296E-03  0.376E-03
  0.473E-03  0.583E-03  0.595E-03  0.556E-03  0.517E-03  0.583E-03  0.827E-03
  0.111E-02  0.133E-02  0.145E-02  0.111E-02  0.103E-02  0.888E-03  0.707E-03
  0.522E-03  0.367E-03  0.252E-03  0.167E-03  0.108E-03  0.660E-04  0.374E-04
  0.201E-04  0.105E-04  0.544E-05  0.319E-05  0.302E-05  0.378E-05  0.478E-05
  0.539E-05  0.513E-05  0.456E-05  0.398E-05  0.332E-05  0.298E-05  0.255E-05
  0.213E-05  0.152E-05  0.107E-13  0.359E-12  0.195E-10  0.207E-09  0.109E-08
  0.121E-07  0.763E-07  0.220E-06  0.340E-06  0.258E-05  0.337E-05  0.695E-06
  0.125E-05  0.395E-05  0.569E-05  0.514E-05  0.278E-05  0.155E-05  0.106E-05
  0.122E-05  0.201E-05  0.505E-05  0.121E-04  0.214E-04  0.353E-04  0.348E-04
  0.432E-04  0.435E-04  0.385E-04  0.309E-04  0.224E-04  0.152E-04  0.109E-04
  0.944E-05  0.943E-05  0.994E-05  0.860E-05  0.810E-05  0.105E-04  0.148E-04
  0.194E-04  0.213E-04  0.199E-04  0.184E-04  0.170E-04  0.150E-04  0.131E-04
  0.107E-04  0.821E-05  0.585E-05  0.265E-14  0.578E-14  0.619E-13  0.517E-12
  0.329E-11  0.169E-10  0.784E-10  0.316E-09  0.666E-09  0.161E-08  0.350E-08
  0.109E-07  0.183E-07  0.220E-07  0.343E-07  0.480E-07  0.527E-07  0.465E-07
  0.355E-07  0.241E-07  0.145E-07  0.784E-08  0.395E-08  0.256E-08  0.289E-08
  0.426E-08  0.900E-08  0.861E-07  0.265E-06  0.377E-06  0.386E-06  0.652E-06
  0.186E-05  0.708E-05  0.196E-04  0.303E-04  0.290E-04  0.292E-04  0.396E-04
  0.564E-04  0.690E-04  0.665E-04  0.576E-04  0.513E-04  0.453E-04  0.392E-04
  0.327E-04  0.254E-04  0.188E-04  0.134E-04  0.168E-14  0.432E-14  0.253E-13
  0.112E-12  0.122E-12  0.501E-12  0.182E-11  0.247E-10  0.134E-10  0.284E-10
  0.702E-10  0.151E-09  0.308E-09  0.619E-09  0.119E-08  0.207E-08  0.289E-08
  0.318E-08  0.290E-08  0.215E-08  0.159E-08  0.106E-08  0.659E-09  0.359E-09
  0.243E-09  0.122E-09  0.303E-10  0.163E-10  0.862E-10  0.541E-08  0.563E-07
  0.577E-06  0.437E-05  0.212E-04  0.599E-04  0.957E-04  0.102E-03  0.112E-03
  0.148E-03  0.189E-03  0.190E-03  0.149E-03  0.117E-03  0.969E-04  0.802E-04
  0.670E-04  0.540E-04  0.408E-04  0.298E-04  0.212E-04  0.912E-15  0.149E-14
  0.299E-14  0.161E-13  0.810E-13  0.339E-12  0.100E-11  0.126E-11  0.116E-11
  0.139E-11  0.362E-11  0.162E-11  0.104E-11  0.163E-11  0.364E-11  0.879E-11
  0.182E-10  0.312E-10  0.411E-10  0.396E-10  0.393E-10  0.332E-10  0.247E-10
  0.160E-10  0.899E-11  0.411E-11  0.178E-11  0.148E-11  0.964E-09  0.102E-07
  0.879E-07  0.107E-05  0.949E-05  0.459E-04  0.128E-03  0.210E-03  0.255E-03
  0.326E-03  0.435E-03  0.480E-03  0.375E-03  0.249E-03  0.183E-03  0.142E-03
  0.113E-03  0.911E-04  0.721E-04  0.540E-04  0.389E-04  0.278E-04  0.346E-15
  0.405E-15  0.610E-15  0.760E-15  0.296E-14  0.948E-14  0.429E-13  0.226E-15
  0.110E-15  0.218E-13  0.105E-14  0.827E-14  0.659E-14  0.671E-14  0.116E-13
  0.901E-14  0.751E-14  0.230E-14  0.952E-14  0.283E-13  0.590E-13  0.928E-13
  0.123E-12  0.127E-12  0.107E-12  0.720E-13  0.505E-13  0.721E-12  0.702E-09
  0.135E-07  0.144E-06  0.149E-05  0.126E-04  0.604E-04  0.163E-03  0.290E-03
  0.417E-03  0.637E-03  0.874E-03  0.842E-03  0.577E-03  0.360E-03  0.247E-03
  0.186E-03  0.145E-03  0.113E-03  0.874E-04  0.645E-04  0.457E-04  0.326E-04
  0.111E-15  0.164E-15  0.153E-15  0.131E-15  0.356E-16  0.171E-16  0.260E-15
  0.164E-16  0.140E-16  0.441E-15  0.313E-16  0.133E-15  0.743E-15  0.196E-14
  0.111E-14  0.155E-14  0.156E-14  0.328E-15  0.204E-15  0.632E-15  0.330E-15
  0.525E-15  0.697E-15  0.253E-14  0.161E-13  0.465E-13  0.583E-12  0.856E-12
  0.104E-09  0.112E-07  0.180E-06  0.162E-05  0.108E-04  0.503E-04  0.143E-03
  0.288E-03  0.523E-03  0.935E-03  0.128E-02  0.114E-02  0.768E-03  0.479E-03
  0.314E-03  0.231E-03  0.174E-03  0.130E-03  0.968E-04  0.699E-04  0.488E-04
  0.348E-04  0.230E-16  0.703E-16  0.555E-16  0.429E-16  0.429E-16  0.898E-16
  0.918E-16  0.217E-16  0.622E-16  0.180E-15  0.421E-16  0.156E-15  0.225E-15
  0.462E-15  0.475E-15  0.326E-15  0.259E-15  0.144E-15  0.742E-16  0.153E-15
  0.682E-15  0.857E-15  0.179E-14  0.459E-14  0.208E-13  0.260E-13  0.130E-12
  0.641E-12  0.608E-11  0.518E-08  0.141E-06  0.150E-05  0.965E-05  0.385E-04
  0.110E-03  0.262E-03  0.592E-03  0.115E-02  0.152E-02  0.133E-02  0.900E-03
  0.565E-03  0.367E-03  0.264E-03  0.192E-03  0.140E-03  0.101E-03  0.725E-04
  0.507E-04  0.362E-04  0.131E-16  0.231E-16  0.359E-16  0.213E-16  0.308E-16
  0.571E-16  0.518E-16  0.106E-16  0.271E-16  0.679E-16  0.412E-16  0.178E-15
  0.859E-16  0.231E-15  0.296E-15  0.242E-16  0.867E-17  0.251E-16  0.780E-16
  0.854E-16  0.121E-14  0.280E-14  0.800E-14  0.890E-14  0.161E-13  0.407E-13
  0.339E-12  0.258E-11  0.673E-10  0.320E-08  0.969E-07  0.120E-05  0.103E-04
  0.423E-04  0.119E-03  0.292E-03  0.663E-03  0.123E-02  0.157E-02  0.142E-02
  0.950E-03  0.604E-03  0.403E-03  0.284E-03  0.204E-03  0.146E-03  0.106E-03
  0.764E-04  0.537E-04  0.383E-04  0.871E-17  0.113E-16  0.148E-16  0.125E-16
  0.205E-16  0.257E-16  0.251E-16  0.154E-16  0.381E-16  0.239E-16  0.170E-16
  0.253E-16  0.534E-16  0.239E-16  0.322E-16  0.132E-15  0.176E-15  0.208E-15
  0.311E-16  0.205E-16  0.689E-14  0.546E-14  0.434E-14  0.118E-13  0.321E-13
  0.733E-12  0.270E-10  0.454E-09  0.304E-08  0.143E-07  0.117E-06  0.121E-05
  0.101E-04  0.485E-04  0.160E-03  0.416E-03  0.857E-03  0.133E-02  0.155E-02
  0.136E-02  0.935E-03  0.622E-03  0.421E-03  0.297E-03  0.213E-03  0.155E-03
  0.113E-03  0.821E-04  0.578E-04  0.412E-04  0.177E-16  0.859E-17  0.301E-16
  0.255E-16  0.108E-16  0.136E-16  0.144E-16  0.568E-17  0.208E-16  0.512E-16
  0.326E-16  0.139E-15  0.371E-16  0.125E-15  0.193E-15  0.555E-17  0.371E-17
  0.684E-17  0.289E-16  0.176E-15  0.122E-13  0.189E-14  0.429E-14  0.134E-13
  0.739E-13  0.716E-11  0.493E-09  0.126E-07  0.933E-07  0.272E-06  0.504E-06
  0.119E-05  0.549E-05  0.294E-04  0.132E-03  0.453E-03  0.999E-03  0.134E-02
  0.142E-02  0.120E-02  0.873E-03  0.611E-03  0.421E-03  0.303E-03  0.221E-03
  0.163E-03  0.120E-03  0.875E-04  0.622E-04  0.443E-04  0.239E-17  0.701E-17
  0.133E-16  0.122E-16  0.758E-17  0.749E-17  0.181E-16  0.196E-16  0.538E-16
  0.128E-16  0.473E-17  0.177E-16  0.359E-16  0.155E-16  0.323E-16  0.612E-16
  0.128E-15  0.109E-15  0.339E-16  0.302E-16  0.411E-14  0.625E-14  0.532E-14
  0.214E-13  0.126E-12  0.265E-10  0.248E-08  0.592E-07  0.613E-06  0.201E-05
  0.319E-05  0.358E-05  0.363E-05  0.642E-05  0.533E-04  0.369E-03  0.992E-03
  0.128E-02  0.122E-02  0.101E-02  0.784E-03  0.571E-03  0.407E-03  0.297E-03
  0.222E-03  0.167E-03  0.125E-03  0.914E-04  0.657E-04  0.468E-04  0.236E-16
  0.503E-17  0.371E-16  0.415E-16  0.765E-17  0.114E-16  0.561E-17  0.128E-17
  0.270E-17  0.805E-16  0.379E-16  0.988E-16  0.381E-16  0.138E-15  0.225E-15
  0.406E-17  0.163E-17  0.480E-17  0.439E-17  0.639E-15  0.253E-14  0.595E-14
  0.526E-14  0.261E-13  0.203E-12  0.582E-10  0.541E-08  0.159E-06  0.146E-05
  0.578E-05  0.102E-04  0.158E-04  0.236E-04  0.441E-04  0.140E-03  0.505E-03
  0.106E-02  0.122E-02  0.107E-02  0.879E-03  0.694E-03  0.524E-03  0.387E-03
  0.289E-03  0.220E-03  0.168E-03  0.127E-03  0.936E-04  0.680E-04  0.485E-04
  0.281E-17  0.871E-17  0.177E-16  0.866E-18  0.372E-17  0.611E-17  0.222E-16
  0.124E-16  0.725E-16  0.763E-17  0.398E-17  0.118E-16  0.311E-16  0.175E-16
  0.849E-16  0.205E-15  0.121E-15  0.123E-15  0.755E-17  0.105E-14  0.209E-14
  0.590E-14  0.869E-14  0.318E-13  0.114E-11  0.162E-09  0.121E-07  0.315E-06
  0.294E-05  0.897E-05  0.276E-04  0.117E-03  0.348E-03  0.663E-03  0.954E-03
  0.126E-02  0.140E-02  0.126E-02  0.103E-02  0.836E-03  0.662E-03  0.508E-03
  0.384E-03  0.291E-03  0.221E-03  0.168E-03  0.127E-03  0.948E-04  0.695E-04
  0.496E-04
20220912 090000
'44097     '  40.98 -71.12      46.6   3.36 149.7   0.18  94.1
  0.318E-16  0.103E-16  0.218E-16  0.299E-16  0.824E-17  0.148E-16  0.151E-16
  0.978E-18  0.391E-17  0.476E-16  0.391E-16  0.137E-15  0.129E-16  0.161E-15
  0.409E-17  0.461E-18  0.967E-18  0.389E-17  0.893E-16  0.117E-14  0.477E-14
  0.246E-13  0.366E-13  0.871E-13  0.122E-11  0.720E-10  0.482E-08  0.152E-06
  0.195E-05  0.796E-05  0.245E-04  0.249E-03  0.982E-03  0.198E-02  0.234E-02
  0.210E-02  0.162E-02  0.114E-02  0.832E-03  0.651E-03  0.510E-03  0.386E-03
  0.287E-03  0.210E-03  0.153E-03  0.112E-03  0.829E-04  0.607E-04  0.433E-04
  0.309E-04  0.964E-17  0.237E-17  0.598E-17  0.849E-18  0.331E-17  0.314E-17
  0.684E-17  0.132E-16  0.575E-16  0.176E-16  0.825E-17  0.278E-16  0.208E-16
  0.231E-16  0.477E-16  0.299E-16  0.529E-16  0.129E-15  0.761E-15  0.350E-14
  0.501E-14  0.146E-13  0.448E-13  0.133E-12  0.189E-11  0.462E-10  0.253E-08
  0.808E-07  0.117E-05  0.418E-05  0.322E-04  0.478E-03  0.199E-02  0.388E-02
  0.426E-02  0.359E-02  0.258E-02  0.162E-02  0.104E-02  0.736E-03  0.555E-03
  0.418E-03  0.312E-03  0.230E-03  0.167E-03  0.120E-03  0.871E-04  0.631E-04
  0.450E-04  0.321E-04  0.173E-16  0.589E-17  0.178E-16  0.185E-16  0.732E-17
  0.127E-16  0.117E-16  0.144E-16  0.126E-16  0.540E-16  0.620E-16  0.498E-16
  0.307E-15  0.646E-15  0.391E-16  0.304E-16  0.223E-15  0.193E-14  0.385E-14
  0.130E-13  0.699E-13  0.589E-12  0.360E-11  0.105E-10  0.254E-10  0.943E-10
  0.128E-08  0.182E-07  0.836E-06  0.699E-05  0.850E-04  0.621E-03  0.228E-02
  0.427E-02  0.471E-02  0.389E-02  0.272E-02  0.173E-02  0.112E-02  0.803E-03
  0.609E-03  0.464E-03  0.351E-03  0.259E-03  0.186E-03  0.131E-03  0.937E-04
  0.675E-04  0.477E-04  0.340E-04  0.209E-16  0.201E-16  0.206E-16  0.253E-16
  0.243E-16  0.577E-16  0.168E-15  0.495E-15  0.101E-14  0.272E-15  0.125E-15
  0.254E-15  0.529E-15  0.848E-15  0.260E-15  0.459E-16  0.378E-15  0.273E-14
  0.190E-13  0.493E-12  0.234E-11  0.160E-10  0.419E-10  0.270E-09  0.126E-08
  0.479E-08  0.141E-07  0.636E-06  0.777E-05  0.394E-04  0.149E-03  0.622E-03
  0.187E-02  0.342E-02  0.383E-02  0.308E-02  0.208E-02  0.136E-02  0.100E-02
  0.810E-03  0.669E-03  0.532E-03  0.412E-03  0.302E-03  0.212E-03  0.145E-03
  0.102E-03  0.733E-04  0.516E-04  0.368E-04  0.150E-15  0.148E-15  0.134E-15
  0.342E-15  0.368E-15  0.643E-15  0.154E-14  0.296E-14  0.184E-14  0.382E-15
  0.148E-15  0.287E-15  0.274E-13  0.967E-12  0.455E-11  0.899E-11  0.145E-10
  0.175E-10  0.318E-10  0.142E-08  0.229E-07  0.448E-07  0.108E-06  0.299E-07
  0.856E-07  0.440E-06  0.179E-05  0.668E-05  0.238E-04  0.672E-04  0.139E-03
  0.323E-03  0.869E-03  0.182E-02  0.239E-02  0.210E-02  0.149E-02  0.105E-02
  0.869E-03  0.783E-03  0.694E-03  0.587E-03  0.477E-03  0.361E-03  0.253E-03
  0.169E-03  0.115E-03  0.805E-04  0.561E-04  0.400E-04  0.317E-15  0.284E-15
  0.262E-15  0.688E-15  0.834E-15  0.174E-14  0.537E-14  0.137E-13  0.282E-14
  0.244E-13  0.386E-12  0.157E-10  0.266E-09  0.167E-08  0.102E-07  0.245E-07
  0.617E-07  0.125E-06  0.143E-06  0.247E-06  0.530E-06  0.934E-06  0.177E-05
  0.262E-05  0.546E-05  0.101E-04  0.160E-04  0.236E-04  0.420E-04  0.777E-04
  0.113E-03  0.150E-03  0.265E-03  0.587E-03  0.104E-02  0.124E-02  0.108E-02
  0.864E-03  0.761E-03  0.732E-03  0.700E-03  0.631E-03  0.540E-03  0.429E-03
  0.315E-03  0.207E-03  0.138E-03  0.934E-04  0.642E-04  0.458E-04  0.245E-14
  0.456E-13  0.189E-12  0.224E-12  0.193E-13  0.623E-14  0.466E-12  0.132E-11
  0.545E-13  0.159E-09  0.421E-08  0.121E-07  0.367E-07  0.228E-06  0.969E-06
  0.140E-05  0.157E-05  0.138E-05  0.112E-05  0.126E-05  0.193E-05  0.295E-05
  0.552E-05  0.136E-04  0.277E-04  0.378E-04  0.436E-04  0.471E-04  0.614E-04
  0.848E-04  0.996E-04  0.100E-03  0.105E-03  0.172E-03  0.387E-03  0.665E-03
  0.768E-03  0.717E-03  0.662E-03  0.674E-03  0.687E-03  0.655E-03  0.584E-03
  0.487E-03  0.375E-03  0.257E-03  0.175E-03  0.119E-03  0.815E-04  0.581E-04
  0.143E-12  0.686E-11  0.637E-10  0.188E-09  0.179E-09  0.388E-10  0.231E-10
  0.611E-09  0.517E-08  0.515E-07  0.190E-06  0.138E-06  0.540E-06  0.206E-05
  0.607E-05  0.803E-05  0.477E-05  0.187E-05  0.148E-05  0.161E-05  0.237E-05
  0.374E-05  0.736E-05  0.252E-04  0.486E-04  0.598E-04  0.632E-04  0.635E-04
  0.723E-04  0.881E-04  0.940E-04  0.911E-04  0.883E-04  0.106E-03  0.179E-03
  0.328E-03  0.464E-03  0.523E-03  0.536E-03  0.579E-03  0.622E-03  0.629E-03
  0.593E-03  0.524E-03  0.430E-03  0.310E-03  0.219E-03  0.155E-03  0.110E-03
  0.781E-04  0.816E-12  0.628E-10  0.103E-08  0.570E-08  0.140E-07  0.158E-07
  0.594E-08  0.123E-07  0.391E-07  0.290E-06  0.232E-05  0.506E-05  0.164E-05
  0.503E-05  0.111E-04  0.126E-04  0.220E-04  0.368E-03  0.182E-02  0.206E-02
  0.200E-02  0.176E-02  0.119E-02  0.108E-02  0.128E-02  0.134E-02  0.117E-02
  0.920E-03  0.676E-03  0.512E-03  0.406E-03  0.313E-03  0.229E-03  0.168E-03
  0.144E-03  0.173E-03  0.238E-03  0.303E-03  0.358E-03  0.423E-03  0.494E-03
  0.538E-03  0.562E-03  0.537E-03  0.475E-03  0.372E-03  0.292E-03  0.236E-03
  0.188E-03  0.134E-03  0.451E-09  0.228E-07  0.328E-06  0.228E-05  0.956E-05
  0.168E-04  0.150E-04  0.838E-06  0.216E-05  0.134E-03  0.711E-03  0.284E-02
  0.109E-03  0.234E-03  0.564E-03  0.156E-02  0.803E-02  0.261E-01  0.387E-01
  0.350E-01  0.245E-01  0.199E-01  0.164E-01  0.142E-01  0.124E-01  0.976E-02
  0.710E-02  0.496E-02  0.334E-02  0.229E-02  0.159E-02  0.104E-02  0.635E-03
  0.358E-03  0.198E-03  0.131E-03  0.121E-03  0.141E-03  0.177E-03  0.226E-03
  0.311E-03  0.412E-03  0.490E-03  0.525E-03  0.516E-03  0.446E-03  0.394E-03
  0.357E-03  0.301E-03  0.215E-03  0.893E-08  0.410E-06  0.656E-05  0.614E-04
  0.502E-03  0.345E-02  0.120E-01  0.149E-01  0.376E-02  0.167E-02  0.563E-02
  0.252E-01  0.125E-02  0.989E-03  0.317E-02  0.128E-01  0.447E-01  0.968E-01
  0.124E+00  0.106E+00  0.710E-01  0.566E-01  0.475E-01  0.387E-01  0.302E-01
  0.214E-01  0.139E-01  0.865E-02  0.533E-02  0.336E-02  0.215E-02  0.130E-02
  0.721E-03  0.370E-03  0.178E-03  0.896E-04  0.611E-04  0.595E-04  0.717E-04
  0.103E-03  0.173E-03  0.277E-03  0.373E-03  0.471E-03  0.492E-03  0.459E-03
  0.431E-03  0.410E-03  0.357E-03  0.255E-03  0.225E-07  0.101E-05  0.177E-04
  0.186E-03  0.184E-02  0.158E-01  0.692E-01  0.141E+00  0.159E+00  0.964E-01
  0.255E-01  0.513E-01  0.376E-02  0.178E-02  0.623E-02  0.248E-01  0.735E-01
  0.137E+00  0.158E+00  0.133E+00  0.902E-01  0.698E-01  0.558E-01  0.433E-01
  0.319E-01  0.212E-01  0.132E-01  0.790E-02  0.464E-02  0.278E-02  0.167E-02
  0.951E-03  0.496E-03  0.234E-03  0.101E-03  0.450E-04  0.268E-04  0.247E-04
  0.341E-04  0.560E-04  0.934E-04  0.152E-03  0.237E-03  0.324E-03  0.361E-03
  0.349E-03  0.338E-03  0.338E-03  0.360E-03  0.257E-03  0.225E-07  0.977E-06
  0.187E-04  0.218E-03  0.242E-02  0.234E-01  0.123E+00  0.320E+00  0.565E+00
  0.743E+00  0.565E+00  0.239E+00  0.310E-01  0.476E-02  0.979E-02  0.310E-01
  0.765E-01  0.131E+00  0.146E+00  0.121E+00  0.805E-01  0.580E-01  0.443E-01
  0.329E-01  0.234E-01  0.151E-01  0.896E-02  0.512E-02  0.284E-02  0.159E-02
  0.888E-03  0.472E-03  0.232E-03  0.104E-03  0.436E-04  0.196E-04  0.118E-04
  0.132E-04  0.200E-04  0.312E-04  0.461E-04  0.668E-04  0.997E-04  0.149E-03
  0.187E-03  0.193E-03  0.191E-03  0.210E-03  0.332E-03  0.237E-03  0.135E-07
  0.493E-06  0.114E-04  0.158E-03  0.201E-02  0.215E-01  0.123E+00  0.367E+00
  0.808E+00  0.155E+01  0.208E+01  0.143E+01  0.541E+00  0.137E+00  0.403E-01
  0.547E-01  0.973E-01  0.151E+00  0.163E+00  0.120E+00  0.746E-01  0.501E-01
  0.361E-01  0.254E-01  0.168E-01  0.103E-01  0.593E-02  0.327E-02  0.175E-02
  0.945E-03  0.537E-03  0.324E-03  0.192E-03  0.105E-03  0.540E-04  0.256E-04
  0.118E-04  0.831E-05  0.103E-04  0.150E-04  0.197E-04  0.233E-04  0.296E-04
  0.417E-04  0.584E-04  0.718E-04  0.777E-04  0.972E-04  0.283E-03  0.202E-03
  0.626E-08  0.163E-06  0.494E-05  0.826E-04  0.122E-02  0.144E-01  0.894E-01
  0.295E+00  0.741E+00  0.171E+01  0.302E+01  0.321E+01  0.190E+01  0.788E+00
  0.297E+00  0.155E+00  0.150E+00  0.177E+00  0.171E+00  0.117E+00  0.765E-01
  0.540E-01  0.386E-01  0.266E-01  0.174E-01  0.111E-01  0.682E-02  0.412E-02
  0.259E-02  0.173E-02  0.122E-02  0.861E-03  0.560E-03  0.311E-03  0.149E-03
  0.615E-04  0.211E-04  0.697E-05  0.448E-05  0.611E-05  0.797E-05  0.841E-05
  0.880E-05  0.111E-04  0.148E-04  0.165E-04  0.205E-04  0.366E-04  0.205E-03
  0.146E-03  0.336E-08  0.822E-07  0.308E-05  0.530E-04  0.790E-03  0.921E-02
  0.561E-01  0.179E+00  0.449E+00  0.118E+01  0.257E+01  0.366E+01  0.295E+01
  0.178E+01  0.888E+00  0.455E+00  0.303E+00  0.243E+00  0.180E+00  0.122E+00
  0.884E-01  0.656E-01  0.494E-01  0.355E-01  0.245E-01  0.178E-01  0.129E-01
  0.903E-02  0.646E-02  0.465E-02  0.324E-02  0.211E-02  0.123E-02  0.594E-03
  0.251E-03  0.923E-04  0.286E-04  0.736E-05  0.208E-05  0.167E-05  0.235E-05
  0.282E-05  0.303E-05  0.396E-05  0.560E-05  0.471E-05  0.449E-05  0.106E-04
  0.107E-03  0.763E-04  0.191E-08  0.564E-07  0.222E-05  0.376E-04  0.542E-03
  0.608E-02  0.355E-01  0.102E+00  0.220E+00  0.545E+00  0.131E+01  0.237E+01
  0.258E+01  0.206E+01  0.134E+01  0.842E+00  0.575E+00  0.411E+00  0.283E+00
  0.192E+00  0.135E+00  0.955E-01  0.721E-01  0.534E-01  0.373E-01  0.265E-01
  0.192E-01  0.139E-01  0.982E-02  0.665E-02  0.423E-02  0.251E-02  0.134E-02
  0.616E-03  0.247E-03  0.881E-04  0.273E-04  0.705E-05  0.150E-05  0.394E-06
  0.392E-06  0.601E-06  0.791E-06  0.148E-05  0.284E-05  0.219E-05  0.173E-05
  0.346E-05  0.535E-04  0.382E-04  0.927E-09  0.322E-07  0.129E-05  0.219E-04
  0.310E-03  0.340E-02  0.196E-01  0.548E-01  0.104E+00  0.220E+00  0.474E+00
  0.935E+00  0.127E+01  0.134E+01  0.115E+01  0.906E+00  0.686E+00  0.523E+00
  0.376E+00  0.263E+00  0.179E+00  0.121E+00  0.860E-01  0.620E-01  0.430E-01
  0.297E-01  0.204E-01  0.139E-01  0.929E-02  0.593E-02  0.353E-02  0.197E-02
  0.991E-03  0.434E-03  0.173E-03  0.634E-04  0.211E-04  0.602E-05  0.137E-05
  0.234E-06  0.493E-07  0.565E-07  0.108E-06  0.477E-06  0.129E-05  0.982E-06
  0.752E-06  0.125E-05  0.336E-04  0.240E-04  0.376E-09  0.148E-07  0.598E-06
  0.101E-04  0.141E-03  0.153E-02  0.866E-02  0.242E-01  0.453E-01  0.904E-01
  0.172E+00  0.299E+00  0.407E+00  0.508E+00  0.566E+00  0.543E+00  0.485E+00
  0.403E+00  0.316E+00  0.238E+00  0.170E+00  0.119E+00  0.842E-01  0.603E-01
  0.414E-01  0.274E-01  0.175E-01  0.110E-01  0.677E-02  0.399E-02  0.222E-02
  0.117E-02  0.572E-03  0.254E-03  0.107E-03  0.425E-04  0.155E-04  0.496E-05
  0.131E-05  0.256E-06  0.316E-07  0.457E-08  0.555E-08  0.129E-06  0.433E-06
  0.329E-06  0.250E-06  0.356E-06  0.177E-04  0.126E-04  0.131E-09  0.556E-08
  0.229E-06  0.385E-05  0.527E-04  0.574E-03  0.321E-02  0.884E-02  0.163E-01
  0.325E-01  0.625E-01  0.101E+00  0.119E+00  0.141E+00  0.176E+00  0.201E+00
  0.208E+00  0.199E+00  0.182E+00  0.156E+00  0.122E+00  0.896E-01  0.651E-01
  0.467E-01  0.316E-01  0.203E-01  0.123E-01  0.728E-02  0.426E-02  0.243E-02
  0.133E-02  0.704E-03  0.350E-03  0.161E-03  0.703E-04  0.290E-04  0.112E-04
  0.395E-05  0.122E-05  0.288E-06  0.448E-07  0.924E-08  0.619E-08  0.348E-07
  0.107E-06  0.805E-07  0.601E-07  0.705E-07  0.636E-05  0.453E-05  0.369E-10
  0.164E-08  0.683E-07  0.115E-05  0.155E-04  0.168E-03  0.955E-03  0.264E-02
  0.475E-02  0.902E-02  0.172E-01  0.278E-01  0.334E-01  0.368E-01  0.435E-01
  0.519E-01  0.584E-01  0.617E-01  0.639E-01  0.649E-01  0.593E-01  0.478E-01
  0.363E-01  0.268E-01  0.188E-01  0.121E-01  0.771E-02  0.464E-02  0.273E-02
  0.158E-02  0.895E-03  0.487E-03  0.246E-03  0.115E-03  0.511E-04  0.214E-04
  0.851E-05  0.319E-05  0.111E-05  0.329E-06  0.129E-06  0.101E-06  0.991E-07
  0.952E-07  0.916E-07  0.582E-07  0.371E-07  0.279E-07  0.126E-05  0.900E-06
  0.731E-11  0.331E-09  0.129E-07  0.217E-06  0.285E-05  0.312E-04  0.187E-03
  0.529E-03  0.949E-03  0.167E-02  0.311E-02  0.403E-02  0.560E-02  0.647E-02
  0.736E-02  0.844E-02  0.939E-02  0.102E-01  0.114E-01  0.131E-01  0.137E-01
  0.127E-01  0.109E-01  0.820E-02  0.646E-02  0.479E-02  0.337E-02  0.219E-02
  0.136E-02  0.836E-03  0.505E-03  0.293E-03  0.159E-03  0.796E-04  0.373E-04
  0.159E-04  0.646E-05  0.258E-05  0.108E-05  0.728E-06  0.724E-06  0.783E-06
  0.739E-06  0.610E-06  0.454E-06  0.289E-06  0.209E-06  0.170E-06  0.517E-06
  0.369E-06  0.550E-12  0.305E-10  0.884E-09  0.148E-07  0.226E-06  0.247E-05
  0.139E-04  0.390E-04  0.694E-04  0.659E-04  0.132E-03  0.277E-03  0.359E-03
  0.449E-03  0.535E-03  0.574E-03  0.538E-03  0.485E-03  0.535E-03  0.766E-03
  0.104E-02  0.125E-02  0.135E-02  0.106E-02  0.100E-02  0.873E-03  0.707E-03
  0.535E-03  0.381E-03  0.262E-03  0.173E-03  0.109E-03  0.654E-04  0.369E-04
  0.194E-04  0.984E-05  0.495E-05  0.262E-05  0.228E-05  0.270E-05  0.339E-05
  0.389E-05  0.375E-05  0.337E-05  0.290E-05  0.237E-05  0.207E-05  0.172E-05
  0.143E-05  0.102E-05  0.771E-14  0.276E-12  0.141E-10  0.152E-09  0.814E-09
  0.904E-08  0.610E-07  0.199E-06  0.309E-06  0.243E-05  0.343E-05  0.703E-06
  0.126E-05  0.401E-05  0.498E-05  0.460E-05  0.257E-05  0.107E-05  0.532E-06
  0.576E-06  0.770E-06  0.229E-05  0.873E-05  0.173E-04  0.301E-04  0.306E-04
  0.408E-04  0.436E-04  0.401E-04  0.330E-04  0.243E-04  0.165E-04  0.111E-04
  0.866E-05  0.800E-05  0.751E-05  0.631E-05  0.579E-05  0.729E-05  0.102E-04
  0.136E-04  0.152E-04  0.146E-04  0.136E-04  0.123E-04  0.106E-04  0.905E-05
  0.721E-05  0.527E-05  0.376E-05  0.278E-14  0.478E-14  0.540E-13  0.480E-12
  0.323E-11  0.173E-10  0.733E-10  0.294E-09  0.638E-09  0.151E-08  0.340E-08
  0.102E-07  0.173E-07  0.209E-07  0.310E-07  0.429E-07  0.465E-07  0.401E-07
  0.309E-07  0.231E-07  0.152E-07  0.855E-08  0.368E-08  0.233E-08  0.254E-08
  0.379E-08  0.443E-08  0.248E-07  0.189E-06  0.358E-06  0.391E-06  0.514E-06
  0.131E-05  0.447E-05  0.126E-04  0.204E-04  0.204E-04  0.204E-04  0.274E-04
  0.392E-04  0.486E-04  0.481E-04  0.425E-04  0.376E-04  0.324E-04  0.276E-04
  0.227E-04  0.172E-04  0.122E-04  0.868E-05  0.153E-14  0.468E-14  0.263E-13
  0.167E-12  0.300E-12  0.524E-12  0.310E-11  0.295E-10  0.158E-10  0.258E-10
  0.653E-10  0.147E-09  0.301E-09  0.589E-09  0.107E-08  0.183E-08  0.253E-08
  0.276E-08  0.252E-08  0.196E-08  0.149E-08  0.100E-08  0.616E-09  0.360E-09
  0.215E-09  0.191E-09  0.509E-10  0.131E-10  0.403E-10  0.639E-09  0.171E-07
  0.233E-06  0.213E-05  0.119E-04  0.370E-04  0.651E-04  0.749E-04  0.823E-04
  0.107E-03  0.135E-03  0.139E-03  0.112E-03  0.873E-04  0.706E-04  0.573E-04
  0.471E-04  0.373E-04  0.276E-04  0.192E-04  0.137E-04  0.661E-15  0.162E-14
  0.305E-14  0.157E-13  0.846E-13  0.366E-12  0.791E-12  0.121E-11  0.130E-11
  0.120E-11  0.390E-11  0.167E-11  0.101E-11  0.141E-11  0.298E-11  0.723E-11
  0.152E-10  0.264E-10  0.355E-10  0.359E-10  0.367E-10  0.319E-10  0.242E-10
  0.159E-10  0.888E-11  0.422E-11  0.221E-11  0.108E-11  0.774E-10  0.248E-08
  0.296E-07  0.359E-06  0.406E-05  0.245E-04  0.798E-04  0.147E-03  0.190E-03
  0.244E-03  0.322E-03  0.358E-03  0.289E-03  0.195E-03  0.139E-03  0.104E-03
  0.806E-04  0.638E-04  0.494E-04  0.361E-04  0.247E-04  0.176E-04  0.293E-15
  0.426E-15  0.591E-15  0.658E-15  0.311E-14  0.954E-14  0.307E-13  0.218E-15
  0.101E-15  0.794E-14  0.815E-15  0.881E-14  0.711E-14  0.699E-14  0.984E-14
  0.754E-14  0.480E-14  0.124E-14  0.612E-14  0.208E-13  0.477E-13  0.816E-13
  0.117E-12  0.129E-12  0.112E-12  0.766E-13  0.618E-13  0.902E-13  0.209E-10
  0.196E-08  0.433E-07  0.470E-06  0.470E-05  0.304E-04  0.982E-04  0.198E-03
  0.299E-03  0.458E-03  0.643E-03  0.657E-03  0.464E-03  0.289E-03  0.190E-03
  0.136E-03  0.103E-03  0.785E-04  0.591E-04  0.424E-04  0.285E-04  0.203E-04
  0.982E-16  0.158E-15  0.148E-15  0.141E-15  0.387E-16  0.151E-16  0.176E-15
  0.155E-16  0.916E-17  0.239E-15  0.109E-15  0.141E-15  0.641E-15  0.167E-14
  0.124E-14  0.133E-14  0.125E-14  0.344E-15  0.198E-15  0.549E-15  0.325E-15
  0.422E-15  0.566E-15  0.206E-14  0.127E-13  0.201E-13  0.193E-12  0.977E-13
  0.491E-11  0.698E-09  0.386E-07  0.473E-06  0.341E-05  0.203E-04  0.762E-04
  0.174E-03  0.331E-03  0.621E-03  0.911E-03  0.892E-03  0.623E-03  0.385E-03
  0.243E-03  0.169E-03  0.123E-03  0.893E-04  0.646E-04  0.452E-04  0.299E-04
  0.213E-04  0.218E-16  0.657E-16  0.544E-16  0.422E-16  0.390E-16  0.843E-16
  0.717E-16  0.249E-16  0.601E-16  0.894E-16  0.620E-16  0.150E-15  0.257E-15
  0.427E-15  0.466E-15  0.366E-15  0.286E-15  0.164E-15  0.576E-16  0.133E-15
  0.646E-15  0.757E-15  0.161E-14  0.328E-14  0.167E-13  0.243E-13  0.386E-13
  0.468E-12  0.177E-11  0.618E-10  0.197E-07  0.370E-06  0.269E-05  0.121E-04
  0.441E-04  0.127E-03  0.330E-03  0.707E-03  0.105E-02  0.102E-02  0.719E-03
  0.449E-03  0.279E-03  0.191E-03  0.134E-03  0.943E-04  0.664E-04  0.460E-04
  0.305E-04  0.218E-04  0.147E-16  0.212E-16  0.367E-16  0.250E-16  0.286E-16
  0.489E-16  0.435E-16  0.847E-17  0.286E-16  0.385E-16  0.515E-16  0.162E-15
  0.929E-16  0.217E-15  0.292E-15  0.528E-16  0.663E-17  0.323E-16  0.796E-16
  0.509E-16  0.114E-14  0.276E-14  0.725E-14  0.758E-14  0.138E-13  0.196E-13
  0.894E-13  0.519E-12  0.111E-10  0.433E-09  0.168E-07  0.289E-06  0.232E-05
  0.123E-04  0.424E-04  0.124E-03  0.330E-03  0.710E-03  0.103E-02  0.105E-02
  0.736E-03  0.465E-03  0.299E-03  0.201E-03  0.139E-03  0.973E-04  0.685E-04
  0.478E-04  0.320E-04  0.228E-04  0.134E-16  0.209E-16  0.143E-16  0.126E-16
  0.166E-16  0.276E-16  0.192E-16  0.210E-16  0.506E-16  0.323E-16  0.203E-16
  0.336E-16  0.116E-15  0.114E-16  0.358E-16  0.184E-15  0.201E-15  0.215E-15
  0.340E-16  0.288E-16  0.676E-14  0.578E-14  0.366E-14  0.100E-13  0.190E-13
  0.127E-12  0.531E-11  0.123E-09  0.964E-09  0.397E-08  0.267E-07  0.304E-06
  0.293E-05  0.176E-04  0.652E-04  0.187E-03  0.435E-03  0.761E-03  0.996E-03
  0.984E-03  0.699E-03  0.464E-03  0.305E-03  0.207E-03  0.144E-03  0.102E-03
  0.728E-04  0.512E-04  0.344E-04  0.245E-04  0.212E-16  0.113E-16  0.198E-16
  0.180E-16  0.104E-16  0.119E-16  0.187E-16  0.295E-17  0.933E-17  0.266E-16
  0.399E-16  0.136E-15  0.166E-16  0.106E-15  0.199E-15  0.103E-16  0.247E-17
  0.770E-17  0.282E-16  0.162E-15  0.107E-13  0.156E-14  0.338E-14  0.976E-14
  0.445E-13  0.809E-12  0.107E-09  0.344E-08  0.328E-07  0.116E-06  0.219E-06
  0.423E-06  0.164E-05  0.102E-04  0.498E-04  0.197E-03  0.517E-03  0.796E-03
  0.928E-03  0.852E-03  0.636E-03  0.446E-03  0.301E-03  0.209E-03  0.148E-03
  0.106E-03  0.771E-04  0.546E-04  0.371E-04  0.264E-04  0.121E-16  0.963E-17
  0.320E-17  0.816E-17  0.588E-17  0.661E-17  0.867E-17  0.144E-16  0.426E-16
  0.201E-16  0.395E-17  0.285E-16  0.446E-16  0.122E-16  0.357E-16  0.642E-16
  0.161E-15  0.213E-15  0.339E-16  0.229E-16  0.353E-14  0.436E-14  0.453E-14
  0.186E-13  0.841E-13  0.260E-11  0.500E-09  0.157E-07  0.221E-06  0.937E-06
  0.173E-05  0.195E-05  0.184E-05  0.224E-05  0.109E-04  0.130E-03  0.501E-03
  0.778E-03  0.814E-03  0.710E-03  0.563E-03  0.411E-03  0.288E-03  0.203E-03
  0.148E-03  0.109E-03  0.798E-04  0.571E-04  0.393E-04  0.280E-04  0.338E-16
  0.115E-16  0.307E-16  0.192E-16  0.745E-17  0.677E-17  0.150E-16  0.488E-17
  0.140E-16  0.320E-16  0.522E-16  0.975E-16  0.688E-17  0.145E-15  0.241E-15
  0.427E-17  0.117E-17  0.865E-17  0.504E-17  0.492E-15  0.181E-14  0.611E-14
  0.109E-13  0.318E-13  0.134E-12  0.832E-11  0.126E-08  0.403E-07  0.536E-06
  0.289E-05  0.582E-05  0.902E-05  0.131E-04  0.208E-04  0.514E-04  0.214E-03
  0.565E-03  0.767E-03  0.728E-03  0.617E-03  0.494E-03  0.373E-03  0.272E-03
  0.197E-03  0.145E-03  0.109E-03  0.808E-04  0.585E-04  0.409E-04  0.292E-04
  0.648E-18  0.291E-17  0.384E-17  0.175E-17  0.474E-17  0.453E-17  0.485E-17
  0.213E-16  0.432E-16  0.222E-16  0.264E-17  0.217E-16  0.425E-16  0.116E-17
  0.846E-16  0.221E-15  0.159E-15  0.229E-15  0.119E-16  0.946E-15  0.283E-14
  0.169E-13  0.224E-13  0.211E-13  0.704E-12  0.360E-10  0.259E-08  0.964E-07
  0.129E-05  0.561E-05  0.129E-04  0.577E-04  0.201E-03  0.423E-03  0.627E-03
  0.803E-03  0.915E-03  0.866E-03  0.727E-03  0.596E-03  0.473E-03  0.362E-03
  0.270E-03  0.199E-03  0.147E-03  0.109E-03  0.813E-04  0.594E-04  0.421E-04
  0.300E-04